<?xml version="1.0" encoding="UTF-8"?>

<!-- generated on 2023-04-17 14:55:30 by Eclipse SUMO netedit Version 1.15.0
<configuration xmlns:xsi="http://www.w3.org/2001/XMLSchema-instance" xsi:noNamespaceSchemaLocation="http://sumo.dlr.de/xsd/netconvertConfiguration.xsd">

    <input>
        <sumo-net-file value="Z:\Users\708891\Desktop\APResearch\Simulations\cloverleaf.net.xml"/>
    </input>

    <output>
        <output-file value="Z:\Users\708891\Desktop\APResearch\Simulations\cloverleaf.net.xml"/>
    </output>

    <processing>
        <geometry.min-radius.fix.railways value="false"/>
        <geometry.max-grade.fix value="false"/>
        <offset.disable-normalization value="true"/>
        <lefthand value="0"/>
    </processing>

    <junctions>
        <no-internal-links value="true"/>
        <no-turnarounds value="true"/>
        <junctions.corner-detail value="5"/>
        <junctions.limit-turn-speed value="5.50"/>
        <rectangular-lane-cut value="0"/>
    </junctions>

    <pedestrian>
        <walkingareas value="0"/>
    </pedestrian>

</configuration>
-->

<net version="1.9" junctionCornerDetail="5" limitTurnSpeed="5.50" xmlns:xsi="http://www.w3.org/2001/XMLSchema-instance" xsi:noNamespaceSchemaLocation="http://sumo.dlr.de/xsd/net_file.xsd">

    <location netOffset="0.00,0.00" convBoundary="-200.00,-200.00,200.00,200.00" origBoundary="-10000000000.00,-10000000000.00,10000000000.00,10000000000.00" projParameter="!"/>

    <edge id="+E" from="J2" to="J3" priority="-1">
        <lane id="+E_0" index="0" allow="pedestrian" speed="13.89" length="100.00" shape="200.00,8.00 100.95,8.00"/>
        <lane id="+E_1" index="1" disallow="pedestrian" speed="13.89" length="100.00" shape="200.00,4.80 100.95,4.80"/>
        <lane id="+E_2" index="2" disallow="pedestrian" speed="13.89" length="100.00" shape="200.00,1.60 100.95,1.60"/>
    </edge>
    <edge id="+N" from="J5" to="J4" priority="-1">
        <lane id="+N_0" index="0" allow="pedestrian" speed="13.89" length="100.00" shape="-8.00,200.00 -8.00,100.95"/>
        <lane id="+N_1" index="1" disallow="pedestrian" speed="13.89" length="100.00" shape="-4.80,200.00 -4.80,100.95"/>
        <lane id="+N_2" index="2" disallow="pedestrian" speed="13.89" length="100.00" shape="-1.60,200.00 -1.60,100.95"/>
    </edge>
    <edge id="+S" from="J7" to="J6" priority="-1">
        <lane id="+S_0" index="0" allow="pedestrian" speed="13.89" length="100.00" shape="8.00,-200.00 8.00,-100.95"/>
        <lane id="+S_1" index="1" disallow="pedestrian" speed="13.89" length="100.00" shape="4.80,-200.00 4.80,-100.95"/>
        <lane id="+S_2" index="2" disallow="pedestrian" speed="13.89" length="100.00" shape="1.60,-200.00 1.60,-100.95"/>
    </edge>
    <edge id="+W" from="J0" to="J1" priority="-1">
        <lane id="+W_0" index="0" allow="pedestrian" speed="13.89" length="100.00" shape="-200.00,-8.00 -100.95,-8.00"/>
        <lane id="+W_1" index="1" disallow="pedestrian" speed="13.89" length="100.00" shape="-200.00,-4.80 -100.95,-4.80"/>
        <lane id="+W_2" index="2" disallow="pedestrian" speed="13.89" length="100.00" shape="-200.00,-1.60 -100.95,-1.60"/>
    </edge>
    <edge id="-E" from="J3" to="J2" priority="-1">
        <lane id="-E_0" index="0" allow="pedestrian" speed="13.89" length="100.00" shape="100.95,-8.00 200.00,-8.00"/>
        <lane id="-E_1" index="1" disallow="pedestrian" speed="13.89" length="100.00" shape="100.95,-4.80 200.00,-4.80"/>
        <lane id="-E_2" index="2" disallow="pedestrian" speed="13.89" length="100.00" shape="100.95,-1.60 200.00,-1.60"/>
    </edge>
    <edge id="-E10" from="J14" to="J4" priority="-1">
        <lane id="-E10_0" index="0" allow="pedestrian" speed="13.89" length="59.10" shape="8.00,45.80 8.00,88.90"/>
        <lane id="-E10_1" index="1" disallow="pedestrian" speed="13.89" length="59.10" shape="4.80,45.80 4.80,88.90"/>
        <lane id="-E10_2" index="2" disallow="pedestrian" speed="13.89" length="59.10" shape="1.60,45.80 1.60,88.90"/>
    </edge>
    <edge id="-E11" from="J15" to="J14" priority="-1">
        <lane id="-E11_0" index="0" allow="pedestrian" speed="13.89" length="81.80" shape="8.00,-30.31 8.00,30.31"/>
        <lane id="-E11_1" index="1" disallow="pedestrian" speed="13.89" length="81.80" shape="4.80,-30.31 4.80,30.31"/>
        <lane id="-E11_2" index="2" disallow="pedestrian" speed="13.89" length="81.80" shape="1.60,-30.31 1.60,30.31"/>
    </edge>
    <edge id="-E12" from="J6" to="J15" priority="-1">
        <lane id="-E12_0" index="0" allow="pedestrian" speed="13.89" length="59.10" shape="8.00,-88.90 8.00,-45.80"/>
        <lane id="-E12_1" index="1" disallow="pedestrian" speed="13.89" length="59.10" shape="4.80,-88.90 4.80,-45.80"/>
        <lane id="-E12_2" index="2" disallow="pedestrian" speed="13.89" length="59.10" shape="1.60,-88.90 1.60,-45.80"/>
    </edge>
    <edge id="-E7" from="J12" to="J1" priority="-1">
        <lane id="-E7_0" index="0" allow="pedestrian" speed="13.89" length="59.10" shape="-45.80,8.00 -88.90,8.00"/>
        <lane id="-E7_1" index="1" disallow="pedestrian" speed="13.89" length="59.10" shape="-45.80,4.80 -88.90,4.80"/>
        <lane id="-E7_2" index="2" disallow="pedestrian" speed="13.89" length="59.10" shape="-45.80,1.60 -88.90,1.60"/>
    </edge>
    <edge id="-E8" from="J13" to="J12" priority="-1">
        <lane id="-E8_0" index="0" allow="pedestrian" speed="13.89" length="81.80" shape="30.31,8.00 -30.31,8.00"/>
        <lane id="-E8_1" index="1" disallow="pedestrian" speed="13.89" length="81.80" shape="30.31,4.80 -30.31,4.80"/>
        <lane id="-E8_2" index="2" disallow="pedestrian" speed="13.89" length="81.80" shape="30.31,1.60 -30.31,1.60"/>
    </edge>
    <edge id="-E9" from="J3" to="J13" priority="-1">
        <lane id="-E9_0" index="0" allow="pedestrian" speed="13.89" length="59.10" shape="88.90,8.00 45.80,8.00"/>
        <lane id="-E9_1" index="1" disallow="pedestrian" speed="13.89" length="59.10" shape="88.90,4.80 45.80,4.80"/>
        <lane id="-E9_2" index="2" disallow="pedestrian" speed="13.89" length="59.10" shape="88.90,1.60 45.80,1.60"/>
    </edge>
    <edge id="-N" from="J4" to="J5" priority="-1">
        <lane id="-N_0" index="0" allow="pedestrian" speed="13.89" length="100.00" shape="8.00,100.95 8.00,200.00"/>
        <lane id="-N_1" index="1" disallow="pedestrian" speed="13.89" length="100.00" shape="4.80,100.95 4.80,200.00"/>
        <lane id="-N_2" index="2" disallow="pedestrian" speed="13.89" length="100.00" shape="1.60,100.95 1.60,200.00"/>
    </edge>
    <edge id="-S" from="J6" to="J7" priority="-1">
        <lane id="-S_0" index="0" allow="pedestrian" speed="13.89" length="100.00" shape="-8.00,-100.95 -8.00,-200.00"/>
        <lane id="-S_1" index="1" disallow="pedestrian" speed="13.89" length="100.00" shape="-4.80,-100.95 -4.80,-200.00"/>
        <lane id="-S_2" index="2" disallow="pedestrian" speed="13.89" length="100.00" shape="-1.60,-100.95 -1.60,-200.00"/>
    </edge>
    <edge id="-W" from="J1" to="J0" priority="-1">
        <lane id="-W_0" index="0" allow="pedestrian" speed="13.89" length="100.00" shape="-100.95,8.00 -200.00,8.00"/>
        <lane id="-W_1" index="1" disallow="pedestrian" speed="13.89" length="100.00" shape="-100.95,4.80 -200.00,4.80"/>
        <lane id="-W_2" index="2" disallow="pedestrian" speed="13.89" length="100.00" shape="-100.95,1.60 -200.00,1.60"/>
    </edge>
    <edge id="E10" from="J4" to="J14" priority="-1">
        <lane id="E10_0" index="0" allow="pedestrian" speed="13.89" length="59.10" shape="-8.00,88.90 -8.00,45.80"/>
        <lane id="E10_1" index="1" disallow="pedestrian" speed="13.89" length="59.10" shape="-4.80,88.90 -4.80,45.80"/>
        <lane id="E10_2" index="2" disallow="pedestrian" speed="13.89" length="59.10" shape="-1.60,88.90 -1.60,45.80"/>
    </edge>
    <edge id="E11" from="J14" to="J15" priority="-1">
        <lane id="E11_0" index="0" allow="pedestrian" speed="13.89" length="81.80" shape="-8.00,30.31 -8.00,-30.31"/>
        <lane id="E11_1" index="1" disallow="pedestrian" speed="13.89" length="81.80" shape="-4.80,30.31 -4.80,-30.31"/>
        <lane id="E11_2" index="2" disallow="pedestrian" speed="13.89" length="81.80" shape="-1.60,30.31 -1.60,-30.31"/>
    </edge>
    <edge id="E12" from="J15" to="J6" priority="-1">
        <lane id="E12_0" index="0" allow="pedestrian" speed="13.89" length="59.10" shape="-8.00,-45.80 -8.00,-88.90"/>
        <lane id="E12_1" index="1" disallow="pedestrian" speed="13.89" length="59.10" shape="-4.80,-45.80 -4.80,-88.90"/>
        <lane id="E12_2" index="2" disallow="pedestrian" speed="13.89" length="59.10" shape="-1.60,-45.80 -1.60,-88.90"/>
    </edge>
    <edge id="E17" from="J14" to="J13" priority="-1" shape="0.00,25.00 0.57,26.67 1.16,28.28 1.77,29.85 2.39,31.37 3.02,32.83 3.67,34.25 4.33,35.62 5.01,36.95 5.70,38.23 6.40,39.46 7.12,40.64 7.84,41.78 8.58,42.88 9.32,43.93 10.08,44.94 10.85,45.90 11.62,46.83 12.40,47.70 13.19,48.54 13.99,49.34 14.79,50.09 15.61,50.81 16.42,51.49 17.24,52.12 18.07,52.72 18.90,53.28 19.73,53.80 20.57,54.29 21.41,54.74 22.25,55.15 23.10,55.53 23.94,55.87 24.79,56.18 25.63,56.45 26.48,56.69 27.32,56.90 28.17,57.07 29.01,57.22 29.85,57.33 30.68,57.41 31.52,57.46 32.34,57.48 33.17,57.47 33.99,57.43 34.80,57.36 35.61,57.26 36.41,57.14 37.20,56.99 37.99,56.82 38.77,56.61 39.54,56.39 40.30,56.13 41.05,55.86 41.79,55.56 42.52,55.23 43.24,54.89 43.95,54.52 44.65,54.13 45.33,53.72 46.00,53.28 46.66,52.83 47.30,52.36 47.93,51.87 48.54,51.36 49.14,50.83 49.72,50.28 50.28,49.72 50.83,49.14 51.36,48.54 51.87,47.93 52.36,47.30 52.83,46.66 53.28,46.00 53.72,45.33 54.13,44.65 54.52,43.95 54.89,43.24 55.23,42.52 55.56,41.79 55.86,41.05 56.13,40.30 56.39,39.54 56.61,38.77 56.82,37.99 56.99,37.20 57.14,36.41 57.26,35.61 57.36,34.80 57.43,33.99 57.47,33.17 57.48,32.34 57.46,31.52 57.41,30.68 57.33,29.85 57.22,29.01 57.07,28.17 56.90,27.32 56.69,26.48 56.45,25.63 56.18,24.79 55.87,23.94 55.53,23.10 55.15,22.25 54.74,21.41 54.29,20.57 53.80,19.73 53.28,18.90 52.72,18.07 52.12,17.24 51.49,16.42 50.81,15.61 50.09,14.79 49.34,13.99 48.54,13.19 47.70,12.40 46.83,11.62 45.90,10.85 44.94,10.08 43.93,9.32 42.88,8.58 41.78,7.84 40.64,7.12 39.46,6.40 38.23,5.70 36.95,5.01 35.62,4.33 34.25,3.67 32.83,3.02 31.37,2.39 29.85,1.77 28.28,1.16 26.67,0.57 25.00,0.00">
        <lane id="E17_0" index="0" disallow="pedestrian" speed="13.89" length="113.86" shape="15.32,43.76 15.94,44.45 16.64,45.20 17.33,45.89 18.02,46.54 18.74,47.17 19.43,47.75 20.11,48.27 20.82,48.79 21.52,49.26 22.21,49.69 22.91,50.10 23.60,50.47 24.28,50.80 24.98,51.11 25.66,51.39 26.35,51.64 27.02,51.85 27.72,52.05 28.37,52.22 29.06,52.35 29.74,52.48 30.39,52.56 31.05,52.62 31.72,52.66 32.37,52.68 33.02,52.67 33.67,52.64 34.30,52.59 34.96,52.50 35.61,52.41 36.25,52.29 36.86,52.15 37.49,51.98 38.10,51.81 38.71,51.60 39.33,51.38 39.90,51.15 40.51,50.87 41.11,50.59 41.67,50.29 42.24,49.98 42.77,49.66 43.33,49.29 43.89,48.91 44.41,48.53 44.92,48.13 45.41,47.72 45.90,47.29 46.37,46.84 46.84,46.37 47.29,45.90 47.72,45.41 48.13,44.92 48.53,44.41 48.91,43.89 49.29,43.33 49.66,42.77 49.98,42.24 50.29,41.67 50.59,41.11 50.87,40.51 51.15,39.90 51.38,39.33 51.60,38.71 51.81,38.10 51.98,37.49 52.15,36.86 52.29,36.25 52.41,35.61 52.50,34.96 52.59,34.30 52.64,33.67 52.67,33.02 52.68,32.37 52.66,31.72 52.62,31.05 52.56,30.39 52.48,29.74 52.35,29.06 52.22,28.37 52.05,27.72 51.85,27.02 51.64,26.35 51.39,25.66 51.11,24.98 50.80,24.28 50.47,23.60 50.10,22.91 49.69,22.21 49.26,21.52 48.79,20.82 48.27,20.11 47.75,19.43 47.17,18.74 46.54,18.02 45.89,17.33 45.20,16.64 44.45,15.94 43.76,15.32"/>
        <lane id="E17_1" index="1" disallow="pedestrian" speed="13.89" length="113.86" shape="12.11,44.92 12.83,45.79 13.58,46.62 14.34,47.43 15.10,48.19 15.87,48.91 16.65,49.60 17.42,50.24 18.20,50.84 18.99,51.41 19.77,51.94 20.56,52.43 21.35,52.89 22.14,53.32 22.93,53.70 23.73,54.06 24.51,54.38 25.31,54.67 26.09,54.92 26.89,55.14 27.67,55.34 28.47,55.50 29.25,55.64 30.03,55.74 30.80,55.81 31.59,55.86 32.35,55.88 33.12,55.87 33.88,55.83 34.63,55.77 35.39,55.67 36.14,55.56 36.88,55.42 37.61,55.26 38.34,55.07 39.06,54.86 39.77,54.62 40.48,54.37 41.16,54.09 41.85,53.78 42.53,53.46 43.19,53.11 43.85,52.75 44.48,52.37 45.11,51.95 45.74,51.52 46.34,51.08 46.93,50.62 47.50,50.15 48.06,49.65 48.60,49.13 49.13,48.60 49.65,48.06 50.15,47.50 50.62,46.93 51.08,46.34 51.52,45.74 51.95,45.11 52.37,44.48 52.75,43.85 53.11,43.19 53.46,42.53 53.78,41.85 54.09,41.16 54.37,40.48 54.62,39.77 54.86,39.06 55.07,38.34 55.26,37.61 55.42,36.88 55.56,36.14 55.67,35.39 55.77,34.63 55.83,33.88 55.87,33.12 55.88,32.35 55.86,31.59 55.81,30.80 55.74,30.03 55.64,29.25 55.50,28.47 55.34,27.67 55.14,26.89 54.92,26.09 54.67,25.31 54.38,24.51 54.06,23.73 53.70,22.93 53.32,22.14 52.89,21.35 52.43,20.56 51.94,19.77 51.41,18.99 50.84,18.20 50.24,17.42 49.60,16.65 48.91,15.87 48.19,15.10 47.43,14.34 46.62,13.58 45.79,12.83 44.92,12.11"/>
    </edge>
    <edge id="E18" from="J13" to="J15" priority="-1" shape="25.00,0.00 26.67,-0.57 28.28,-1.16 29.85,-1.77 31.37,-2.39 32.83,-3.02 34.25,-3.67 35.62,-4.33 36.95,-5.01 38.23,-5.70 39.46,-6.40 40.64,-7.12 41.78,-7.84 42.88,-8.58 43.93,-9.32 44.94,-10.08 45.90,-10.85 46.83,-11.62 47.70,-12.40 48.54,-13.19 49.34,-13.99 50.09,-14.79 50.81,-15.61 51.49,-16.42 52.12,-17.24 52.72,-18.07 53.28,-18.90 53.80,-19.73 54.29,-20.57 54.74,-21.41 55.15,-22.25 55.53,-23.10 55.87,-23.94 56.18,-24.79 56.45,-25.63 56.69,-26.48 56.90,-27.32 57.07,-28.17 57.22,-29.01 57.33,-29.85 57.41,-30.68 57.46,-31.52 57.48,-32.34 57.47,-33.17 57.43,-33.99 57.36,-34.80 57.26,-35.61 57.14,-36.41 56.99,-37.20 56.82,-37.99 56.61,-38.77 56.39,-39.54 56.13,-40.30 55.86,-41.05 55.56,-41.79 55.23,-42.52 54.89,-43.24 54.52,-43.95 54.13,-44.65 53.72,-45.33 53.28,-46.00 52.83,-46.66 52.36,-47.30 51.87,-47.93 51.36,-48.54 50.83,-49.14 50.28,-49.72 49.72,-50.28 49.14,-50.83 48.54,-51.36 47.93,-51.87 47.30,-52.36 46.66,-52.83 46.00,-53.28 45.33,-53.72 44.65,-54.13 43.95,-54.52 43.24,-54.89 42.52,-55.23 41.79,-55.56 41.05,-55.86 40.30,-56.13 39.54,-56.39 38.77,-56.61 37.99,-56.82 37.20,-56.99 36.41,-57.14 35.61,-57.26 34.80,-57.36 33.99,-57.43 33.17,-57.47 32.34,-57.48 31.52,-57.46 30.68,-57.41 29.85,-57.33 29.01,-57.22 28.17,-57.07 27.32,-56.90 26.48,-56.69 25.63,-56.45 24.79,-56.18 23.94,-55.87 23.10,-55.53 22.25,-55.15 21.41,-54.74 20.57,-54.29 19.73,-53.80 18.90,-53.28 18.07,-52.72 17.24,-52.12 16.42,-51.49 15.61,-50.81 14.79,-50.09 13.99,-49.34 13.19,-48.54 12.40,-47.70 11.62,-46.83 10.85,-45.90 10.08,-44.94 9.32,-43.93 8.58,-42.88 7.84,-41.78 7.12,-40.64 6.40,-39.46 5.70,-38.23 5.01,-36.95 4.33,-35.62 3.67,-34.25 3.02,-32.83 2.39,-31.37 1.77,-29.85 1.16,-28.28 0.57,-26.67 0.00,-25.00">
        <lane id="E18_0" index="0" disallow="pedestrian" speed="13.89" length="113.86" shape="43.76,-15.32 44.45,-15.94 45.20,-16.64 45.89,-17.33 46.54,-18.02 47.17,-18.74 47.75,-19.43 48.27,-20.11 48.79,-20.82 49.26,-21.52 49.69,-22.21 50.10,-22.91 50.47,-23.60 50.80,-24.28 51.11,-24.98 51.39,-25.66 51.64,-26.35 51.85,-27.02 52.05,-27.72 52.22,-28.37 52.35,-29.06 52.48,-29.74 52.56,-30.39 52.62,-31.05 52.66,-31.72 52.68,-32.37 52.67,-33.02 52.64,-33.67 52.59,-34.30 52.50,-34.96 52.41,-35.61 52.29,-36.25 52.15,-36.86 51.98,-37.49 51.81,-38.10 51.60,-38.71 51.38,-39.33 51.15,-39.90 50.87,-40.51 50.59,-41.11 50.29,-41.67 49.98,-42.24 49.66,-42.77 49.29,-43.33 48.91,-43.89 48.53,-44.41 48.13,-44.92 47.72,-45.41 47.29,-45.90 46.84,-46.37 46.37,-46.84 45.90,-47.29 45.41,-47.72 44.92,-48.13 44.41,-48.53 43.89,-48.91 43.33,-49.29 42.77,-49.66 42.24,-49.98 41.67,-50.29 41.11,-50.59 40.51,-50.87 39.90,-51.15 39.33,-51.38 38.71,-51.60 38.10,-51.81 37.49,-51.98 36.86,-52.15 36.25,-52.29 35.61,-52.41 34.96,-52.50 34.30,-52.59 33.67,-52.64 33.02,-52.67 32.37,-52.68 31.72,-52.66 31.05,-52.62 30.39,-52.56 29.74,-52.48 29.06,-52.35 28.37,-52.22 27.72,-52.05 27.02,-51.85 26.35,-51.64 25.66,-51.39 24.98,-51.11 24.28,-50.80 23.60,-50.47 22.91,-50.10 22.21,-49.69 21.52,-49.26 20.82,-48.79 20.11,-48.27 19.43,-47.75 18.74,-47.17 18.02,-46.54 17.33,-45.89 16.64,-45.20 15.94,-44.45 15.32,-43.76"/>
        <lane id="E18_1" index="1" disallow="pedestrian" speed="13.89" length="113.86" shape="44.92,-12.11 45.79,-12.83 46.62,-13.58 47.43,-14.34 48.19,-15.10 48.91,-15.87 49.60,-16.65 50.24,-17.42 50.84,-18.20 51.41,-18.99 51.94,-19.77 52.43,-20.56 52.89,-21.35 53.32,-22.14 53.70,-22.93 54.06,-23.73 54.38,-24.51 54.67,-25.31 54.92,-26.09 55.14,-26.89 55.34,-27.67 55.50,-28.47 55.64,-29.25 55.74,-30.03 55.81,-30.80 55.86,-31.59 55.88,-32.35 55.87,-33.12 55.83,-33.88 55.77,-34.63 55.67,-35.39 55.56,-36.14 55.42,-36.88 55.26,-37.61 55.07,-38.34 54.86,-39.06 54.62,-39.77 54.37,-40.48 54.09,-41.16 53.78,-41.85 53.46,-42.53 53.11,-43.19 52.75,-43.85 52.37,-44.48 51.95,-45.11 51.52,-45.74 51.08,-46.34 50.62,-46.93 50.15,-47.50 49.65,-48.06 49.13,-48.60 48.60,-49.13 48.06,-49.65 47.50,-50.15 46.93,-50.62 46.34,-51.08 45.74,-51.52 45.11,-51.95 44.48,-52.37 43.85,-52.75 43.19,-53.11 42.53,-53.46 41.85,-53.78 41.16,-54.09 40.48,-54.37 39.77,-54.62 39.06,-54.86 38.34,-55.07 37.61,-55.26 36.88,-55.42 36.14,-55.56 35.39,-55.67 34.63,-55.77 33.88,-55.83 33.12,-55.87 32.35,-55.88 31.59,-55.86 30.80,-55.81 30.03,-55.74 29.25,-55.64 28.47,-55.50 27.67,-55.34 26.89,-55.14 26.09,-54.92 25.31,-54.67 24.51,-54.38 23.73,-54.06 22.93,-53.70 22.14,-53.32 21.35,-52.89 20.56,-52.43 19.77,-51.94 18.99,-51.41 18.20,-50.84 17.42,-50.24 16.65,-49.60 15.87,-48.91 15.10,-48.19 14.34,-47.43 13.58,-46.62 12.83,-45.79 12.11,-44.92"/>
    </edge>
    <edge id="E19" from="J15" to="J12" priority="-1" shape="0.00,-25.00 -0.57,-26.67 -1.16,-28.28 -1.77,-29.85 -2.39,-31.37 -3.02,-32.83 -3.67,-34.25 -4.33,-35.62 -5.01,-36.95 -5.70,-38.23 -6.40,-39.46 -7.12,-40.64 -7.84,-41.78 -8.58,-42.88 -9.32,-43.93 -10.08,-44.94 -10.85,-45.90 -11.62,-46.83 -12.40,-47.70 -13.19,-48.54 -13.99,-49.34 -14.79,-50.09 -15.61,-50.81 -16.42,-51.49 -17.24,-52.12 -18.07,-52.72 -18.90,-53.28 -19.73,-53.80 -20.57,-54.29 -21.41,-54.74 -22.25,-55.15 -23.10,-55.53 -23.94,-55.87 -24.79,-56.18 -25.63,-56.45 -26.48,-56.69 -27.32,-56.90 -28.17,-57.07 -29.01,-57.22 -29.85,-57.33 -30.68,-57.41 -31.52,-57.46 -32.34,-57.48 -33.17,-57.47 -33.99,-57.43 -34.80,-57.36 -35.61,-57.26 -36.41,-57.14 -37.20,-56.99 -37.99,-56.82 -38.77,-56.61 -39.54,-56.39 -40.30,-56.13 -41.05,-55.86 -41.79,-55.56 -42.52,-55.23 -43.24,-54.89 -43.95,-54.52 -44.65,-54.13 -45.33,-53.72 -46.00,-53.28 -46.66,-52.83 -47.30,-52.36 -47.93,-51.87 -48.54,-51.36 -49.14,-50.83 -49.72,-50.28 -50.28,-49.72 -50.83,-49.14 -51.36,-48.54 -51.87,-47.93 -52.36,-47.30 -52.83,-46.66 -53.28,-46.00 -53.72,-45.33 -54.13,-44.65 -54.52,-43.95 -54.89,-43.24 -55.23,-42.52 -55.56,-41.79 -55.86,-41.05 -56.13,-40.30 -56.39,-39.54 -56.61,-38.77 -56.82,-37.99 -56.99,-37.20 -57.14,-36.41 -57.26,-35.61 -57.36,-34.80 -57.43,-33.99 -57.47,-33.17 -57.48,-32.34 -57.46,-31.52 -57.41,-30.68 -57.33,-29.85 -57.22,-29.01 -57.07,-28.17 -56.90,-27.32 -56.69,-26.48 -56.45,-25.63 -56.18,-24.79 -55.87,-23.94 -55.53,-23.10 -55.15,-22.25 -54.74,-21.41 -54.29,-20.57 -53.80,-19.73 -53.28,-18.90 -52.72,-18.07 -52.12,-17.24 -51.49,-16.42 -50.81,-15.61 -50.09,-14.79 -49.34,-13.99 -48.54,-13.19 -47.70,-12.40 -46.83,-11.62 -45.90,-10.85 -44.94,-10.08 -43.93,-9.32 -42.88,-8.58 -41.78,-7.84 -40.64,-7.12 -39.46,-6.40 -38.23,-5.70 -36.95,-5.01 -35.62,-4.33 -34.25,-3.67 -32.83,-3.02 -31.37,-2.39 -29.85,-1.77 -28.28,-1.16 -26.67,-0.57 -25.00,0.00">
        <lane id="E19_0" index="0" disallow="pedestrian" speed="13.89" length="113.86" shape="-15.32,-43.76 -15.94,-44.45 -16.64,-45.20 -17.33,-45.89 -18.02,-46.54 -18.74,-47.17 -19.43,-47.75 -20.11,-48.27 -20.82,-48.79 -21.52,-49.26 -22.21,-49.69 -22.91,-50.10 -23.60,-50.47 -24.28,-50.80 -24.98,-51.11 -25.66,-51.39 -26.35,-51.64 -27.02,-51.85 -27.72,-52.05 -28.37,-52.22 -29.06,-52.35 -29.74,-52.48 -30.39,-52.56 -31.05,-52.62 -31.72,-52.66 -32.37,-52.68 -33.02,-52.67 -33.67,-52.64 -34.30,-52.59 -34.96,-52.50 -35.61,-52.41 -36.25,-52.29 -36.86,-52.15 -37.49,-51.98 -38.10,-51.81 -38.71,-51.60 -39.33,-51.38 -39.90,-51.15 -40.51,-50.87 -41.11,-50.59 -41.67,-50.29 -42.24,-49.98 -42.77,-49.66 -43.33,-49.29 -43.89,-48.91 -44.41,-48.53 -44.92,-48.13 -45.41,-47.72 -45.90,-47.29 -46.37,-46.84 -46.84,-46.37 -47.29,-45.90 -47.72,-45.41 -48.13,-44.92 -48.53,-44.41 -48.91,-43.89 -49.29,-43.33 -49.66,-42.77 -49.98,-42.24 -50.29,-41.67 -50.59,-41.11 -50.87,-40.51 -51.15,-39.90 -51.38,-39.33 -51.60,-38.71 -51.81,-38.10 -51.98,-37.49 -52.15,-36.86 -52.29,-36.25 -52.41,-35.61 -52.50,-34.96 -52.59,-34.30 -52.64,-33.67 -52.67,-33.02 -52.68,-32.37 -52.66,-31.72 -52.62,-31.05 -52.56,-30.39 -52.48,-29.74 -52.35,-29.06 -52.22,-28.37 -52.05,-27.72 -51.85,-27.02 -51.64,-26.35 -51.39,-25.66 -51.11,-24.98 -50.80,-24.28 -50.47,-23.60 -50.10,-22.91 -49.69,-22.21 -49.26,-21.52 -48.79,-20.82 -48.27,-20.11 -47.75,-19.43 -47.17,-18.74 -46.54,-18.02 -45.89,-17.33 -45.20,-16.64 -44.45,-15.94 -43.76,-15.32"/>
        <lane id="E19_1" index="1" disallow="pedestrian" speed="13.89" length="113.86" shape="-12.11,-44.92 -12.83,-45.79 -13.58,-46.62 -14.34,-47.43 -15.10,-48.19 -15.87,-48.91 -16.65,-49.60 -17.42,-50.24 -18.20,-50.84 -18.99,-51.41 -19.77,-51.94 -20.56,-52.43 -21.35,-52.89 -22.14,-53.32 -22.93,-53.70 -23.73,-54.06 -24.51,-54.38 -25.31,-54.67 -26.09,-54.92 -26.89,-55.14 -27.67,-55.34 -28.47,-55.50 -29.25,-55.64 -30.03,-55.74 -30.80,-55.81 -31.59,-55.86 -32.35,-55.88 -33.12,-55.87 -33.88,-55.83 -34.63,-55.77 -35.39,-55.67 -36.14,-55.56 -36.88,-55.42 -37.61,-55.26 -38.34,-55.07 -39.06,-54.86 -39.77,-54.62 -40.48,-54.37 -41.16,-54.09 -41.85,-53.78 -42.53,-53.46 -43.19,-53.11 -43.85,-52.75 -44.48,-52.37 -45.11,-51.95 -45.74,-51.52 -46.34,-51.08 -46.93,-50.62 -47.50,-50.15 -48.06,-49.65 -48.60,-49.13 -49.13,-48.60 -49.65,-48.06 -50.15,-47.50 -50.62,-46.93 -51.08,-46.34 -51.52,-45.74 -51.95,-45.11 -52.37,-44.48 -52.75,-43.85 -53.11,-43.19 -53.46,-42.53 -53.78,-41.85 -54.09,-41.16 -54.37,-40.48 -54.62,-39.77 -54.86,-39.06 -55.07,-38.34 -55.26,-37.61 -55.42,-36.88 -55.56,-36.14 -55.67,-35.39 -55.77,-34.63 -55.83,-33.88 -55.87,-33.12 -55.88,-32.35 -55.86,-31.59 -55.81,-30.80 -55.74,-30.03 -55.64,-29.25 -55.50,-28.47 -55.34,-27.67 -55.14,-26.89 -54.92,-26.09 -54.67,-25.31 -54.38,-24.51 -54.06,-23.73 -53.70,-22.93 -53.32,-22.14 -52.89,-21.35 -52.43,-20.56 -51.94,-19.77 -51.41,-18.99 -50.84,-18.20 -50.24,-17.42 -49.60,-16.65 -48.91,-15.87 -48.19,-15.10 -47.43,-14.34 -46.62,-13.58 -45.79,-12.83 -44.92,-12.11"/>
    </edge>
    <edge id="E20" from="J12" to="J14" priority="-1" shape="-25.00,0.00 -26.67,0.57 -28.28,1.16 -29.85,1.77 -31.37,2.39 -32.83,3.02 -34.25,3.67 -35.62,4.33 -36.95,5.01 -38.23,5.70 -39.46,6.40 -40.64,7.12 -41.78,7.84 -42.88,8.58 -43.93,9.32 -44.94,10.08 -45.90,10.85 -46.83,11.62 -47.70,12.40 -48.54,13.19 -49.34,13.99 -50.09,14.79 -50.81,15.61 -51.49,16.42 -52.12,17.24 -52.72,18.07 -53.28,18.90 -53.80,19.73 -54.29,20.57 -54.74,21.41 -55.15,22.25 -55.53,23.10 -55.87,23.94 -56.18,24.79 -56.45,25.63 -56.69,26.48 -56.90,27.32 -57.07,28.17 -57.22,29.01 -57.33,29.85 -57.41,30.68 -57.46,31.52 -57.48,32.34 -57.47,33.17 -57.43,33.99 -57.36,34.80 -57.26,35.61 -57.14,36.41 -56.99,37.20 -56.82,37.99 -56.61,38.77 -56.39,39.54 -56.13,40.30 -55.86,41.05 -55.56,41.79 -55.23,42.52 -54.89,43.24 -54.52,43.95 -54.13,44.65 -53.72,45.33 -53.28,46.00 -52.83,46.66 -52.36,47.30 -51.87,47.93 -51.36,48.54 -50.83,49.14 -50.28,49.72 -49.72,50.28 -49.14,50.83 -48.54,51.36 -47.93,51.87 -47.30,52.36 -46.66,52.83 -46.00,53.28 -45.33,53.72 -44.65,54.13 -43.95,54.52 -43.24,54.89 -42.52,55.23 -41.79,55.56 -41.05,55.86 -40.30,56.13 -39.54,56.39 -38.77,56.61 -37.99,56.82 -37.20,56.99 -36.41,57.14 -35.61,57.26 -34.80,57.36 -33.99,57.43 -33.17,57.47 -32.34,57.48 -31.52,57.46 -30.68,57.41 -29.85,57.33 -29.01,57.22 -28.17,57.07 -27.32,56.90 -26.48,56.69 -25.63,56.45 -24.79,56.18 -23.94,55.87 -23.10,55.53 -22.25,55.15 -21.41,54.74 -20.57,54.29 -19.73,53.80 -18.90,53.28 -18.07,52.72 -17.24,52.12 -16.42,51.49 -15.61,50.81 -14.79,50.09 -13.99,49.34 -13.19,48.54 -12.40,47.70 -11.62,46.83 -10.85,45.90 -10.08,44.94 -9.32,43.93 -8.58,42.88 -7.84,41.78 -7.12,40.64 -6.40,39.46 -5.70,38.23 -5.01,36.95 -4.33,35.62 -3.67,34.25 -3.02,32.83 -2.39,31.37 -1.77,29.85 -1.16,28.28 -0.57,26.67 0.00,25.00">
        <lane id="E20_0" index="0" disallow="pedestrian" speed="13.89" length="113.86" shape="-43.76,15.32 -44.45,15.94 -45.20,16.64 -45.89,17.33 -46.54,18.02 -47.17,18.74 -47.75,19.43 -48.27,20.11 -48.79,20.82 -49.26,21.52 -49.69,22.21 -50.10,22.91 -50.47,23.60 -50.80,24.28 -51.11,24.98 -51.39,25.66 -51.64,26.35 -51.85,27.02 -52.05,27.72 -52.22,28.37 -52.35,29.06 -52.48,29.74 -52.56,30.39 -52.62,31.05 -52.66,31.72 -52.68,32.37 -52.67,33.02 -52.64,33.67 -52.59,34.30 -52.50,34.96 -52.41,35.61 -52.29,36.25 -52.15,36.86 -51.98,37.49 -51.81,38.10 -51.60,38.71 -51.38,39.33 -51.15,39.90 -50.87,40.51 -50.59,41.11 -50.29,41.67 -49.98,42.24 -49.66,42.77 -49.29,43.33 -48.91,43.89 -48.53,44.41 -48.13,44.92 -47.72,45.41 -47.29,45.90 -46.84,46.37 -46.37,46.84 -45.90,47.29 -45.41,47.72 -44.92,48.13 -44.41,48.53 -43.89,48.91 -43.33,49.29 -42.77,49.66 -42.24,49.98 -41.67,50.29 -41.11,50.59 -40.51,50.87 -39.90,51.15 -39.33,51.38 -38.71,51.60 -38.10,51.81 -37.49,51.98 -36.86,52.15 -36.25,52.29 -35.61,52.41 -34.96,52.50 -34.30,52.59 -33.67,52.64 -33.02,52.67 -32.37,52.68 -31.72,52.66 -31.05,52.62 -30.39,52.56 -29.74,52.48 -29.06,52.35 -28.37,52.22 -27.72,52.05 -27.02,51.85 -26.35,51.64 -25.66,51.39 -24.98,51.11 -24.28,50.80 -23.60,50.47 -22.91,50.10 -22.21,49.69 -21.52,49.26 -20.82,48.79 -20.11,48.27 -19.43,47.75 -18.74,47.17 -18.02,46.54 -17.33,45.89 -16.64,45.20 -15.94,44.45 -15.32,43.76"/>
        <lane id="E20_1" index="1" disallow="pedestrian" speed="13.89" length="113.86" shape="-44.92,12.11 -45.79,12.83 -46.62,13.58 -47.43,14.34 -48.19,15.10 -48.91,15.87 -49.60,16.65 -50.24,17.42 -50.84,18.20 -51.41,18.99 -51.94,19.77 -52.43,20.56 -52.89,21.35 -53.32,22.14 -53.70,22.93 -54.06,23.73 -54.38,24.51 -54.67,25.31 -54.92,26.09 -55.14,26.89 -55.34,27.67 -55.50,28.47 -55.64,29.25 -55.74,30.03 -55.81,30.80 -55.86,31.59 -55.88,32.35 -55.87,33.12 -55.83,33.88 -55.77,34.63 -55.67,35.39 -55.56,36.14 -55.42,36.88 -55.26,37.61 -55.07,38.34 -54.86,39.06 -54.62,39.77 -54.37,40.48 -54.09,41.16 -53.78,41.85 -53.46,42.53 -53.11,43.19 -52.75,43.85 -52.37,44.48 -51.95,45.11 -51.52,45.74 -51.08,46.34 -50.62,46.93 -50.15,47.50 -49.65,48.06 -49.13,48.60 -48.60,49.13 -48.06,49.65 -47.50,50.15 -46.93,50.62 -46.34,51.08 -45.74,51.52 -45.11,51.95 -44.48,52.37 -43.85,52.75 -43.19,53.11 -42.53,53.46 -41.85,53.78 -41.16,54.09 -40.48,54.37 -39.77,54.62 -39.06,54.86 -38.34,55.07 -37.61,55.26 -36.88,55.42 -36.14,55.56 -35.39,55.67 -34.63,55.77 -33.88,55.83 -33.12,55.87 -32.35,55.88 -31.59,55.86 -30.80,55.81 -30.03,55.74 -29.25,55.64 -28.47,55.50 -27.67,55.34 -26.89,55.14 -26.09,54.92 -25.31,54.67 -24.51,54.38 -23.73,54.06 -22.93,53.70 -22.14,53.32 -21.35,52.89 -20.56,52.43 -19.77,51.94 -18.99,51.41 -18.20,50.84 -17.42,50.24 -16.65,49.60 -15.87,48.91 -15.10,48.19 -14.34,47.43 -13.58,46.62 -12.83,45.79 -12.11,44.92"/>
    </edge>
    <edge id="E21" from="J4" to="J1" priority="-1">
        <lane id="E21_0" index="0" disallow="pedestrian" speed="13.89" length="141.42" shape="-14.05,92.73 -92.73,14.05"/>
        <lane id="E21_1" index="1" disallow="pedestrian" speed="13.89" length="141.42" shape="-11.79,90.47 -90.47,11.79"/>
    </edge>
    <edge id="E22" from="J1" to="J6" priority="-1">
        <lane id="E22_0" index="0" disallow="pedestrian" speed="13.89" length="141.42" shape="-92.73,-14.05 -14.05,-92.73"/>
        <lane id="E22_1" index="1" disallow="pedestrian" speed="13.89" length="141.42" shape="-90.47,-11.79 -11.79,-90.47"/>
    </edge>
    <edge id="E23" from="J6" to="J3" priority="-1">
        <lane id="E23_0" index="0" disallow="pedestrian" speed="13.89" length="141.42" shape="14.05,-92.73 92.73,-14.05"/>
        <lane id="E23_1" index="1" disallow="pedestrian" speed="13.89" length="141.42" shape="11.79,-90.47 90.47,-11.79"/>
    </edge>
    <edge id="E24" from="J3" to="J4" priority="-1">
        <lane id="E24_0" index="0" disallow="pedestrian" speed="13.89" length="141.42" shape="92.73,14.05 14.05,92.73"/>
        <lane id="E24_1" index="1" disallow="pedestrian" speed="13.89" length="141.42" shape="90.47,11.79 11.79,90.47"/>
    </edge>
    <edge id="E7" from="J1" to="J12" priority="-1">
        <lane id="E7_0" index="0" allow="pedestrian" speed="13.89" length="59.10" shape="-88.90,-8.00 -45.80,-8.00"/>
        <lane id="E7_1" index="1" disallow="pedestrian" speed="13.89" length="59.10" shape="-88.90,-4.80 -45.80,-4.80"/>
        <lane id="E7_2" index="2" disallow="pedestrian" speed="13.89" length="59.10" shape="-88.90,-1.60 -45.80,-1.60"/>
    </edge>
    <edge id="E8" from="J12" to="J13" priority="-1">
        <lane id="E8_0" index="0" allow="pedestrian" speed="13.89" length="81.80" shape="-30.31,-8.00 30.31,-8.00"/>
        <lane id="E8_1" index="1" disallow="pedestrian" speed="13.89" length="81.80" shape="-30.31,-4.80 30.31,-4.80"/>
        <lane id="E8_2" index="2" disallow="pedestrian" speed="13.89" length="81.80" shape="-30.31,-1.60 30.31,-1.60"/>
    </edge>
    <edge id="E9" from="J13" to="J3" priority="-1">
        <lane id="E9_0" index="0" allow="pedestrian" speed="13.89" length="59.10" shape="45.80,-8.00 88.90,-8.00"/>
        <lane id="E9_1" index="1" disallow="pedestrian" speed="13.89" length="59.10" shape="45.80,-4.80 88.90,-4.80"/>
        <lane id="E9_2" index="2" disallow="pedestrian" speed="13.89" length="59.10" shape="45.80,-1.60 88.90,-1.60"/>
    </edge>

    <tlLogic id="J1" type="static" programID="0" offset="0">
        <phase duration="1"  state="GGgGGGGG"/>
        <phase duration="1"  state="ggGGGGGG"/>
    </tlLogic>