<configuration>
    <net-file value="Simulations\threeLevelDiamond.net.xml"/>
    <route-files value="Simulations\unifiedDistribution.rou.xml"/>
    <collision-output value="Simulations\output\threeLevelDiamond\threeLevelDiamondCollision3.xml"/>
    <tripinfo-output value="Simulations\output\threeLevelDiamond\threeLevelDiamondTripinfo3.xml"/>
    <statistic-output value="Simulations\output\threeLevelDiamond\threeLevelDiamondNetworkStats3.xml"/>
</configuration>