<?xml version="1.0" encoding="UTF-8"?>

<!-- generated on 2023-04-16 19:58:42 by Eclipse SUMO netedit Version 1.15.0
<configuration xmlns:xsi="http://www.w3.org/2001/XMLSchema-instance" xsi:noNamespaceSchemaLocation="http://sumo.dlr.de/xsd/netconvertConfiguration.xsd">

    <input>
        <sumo-net-file value="Z:\Users\708891\Desktop\APResearch\Simulations\template.net.xml"/>
    </input>

    <output>
        <output-file value="Z:\Users\708891\Desktop\APResearch\Simulations\continuousFlow.net.xml"/>
    </output>

    <processing>
        <geometry.min-radius.fix.railways value="false"/>
        <geometry.max-grade.fix value="false"/>
        <offset.disable-normalization value="true"/>
        <lefthand value="0"/>
    </processing>

    <junctions>
        <no-internal-links value="true"/>
        <no-turnarounds value="true"/>
        <junctions.corner-detail value="5"/>
        <junctions.limit-turn-speed value="5.50"/>
        <rectangular-lane-cut value="0"/>
    </junctions>

    <pedestrian>
        <walkingareas value="0"/>
    </pedestrian>

    <netedit>
        <route-files value="Z:\Users\708891\Desktop\APResearch\Simulations\unifiedDistribution.rou.xml"/>
    </netedit>

</configuration>
-->

<net version="1.9" junctionCornerDetail="5" limitTurnSpeed="5.50" xmlns:xsi="http://www.w3.org/2001/XMLSchema-instance" xsi:noNamespaceSchemaLocation="http://sumo.dlr.de/xsd/net_file.xsd">

    <location netOffset="0.00,0.00" convBoundary="-200.00,-200.00,200.00,200.00" origBoundary="-10000000000.00,-10000000000.00,10000000000.00,10000000000.00" projParameter="!"/>

    <edge id="+E" from="J2" to="J3" priority="-1">
        <lane id="+E_0" index="0" allow="pedestrian" speed="13.89" length="100.00" shape="200.00,8.00 100.00,8.00"/>
        <lane id="+E_1" index="1" disallow="pedestrian" speed="13.89" length="100.00" shape="200.00,4.80 100.00,4.80"/>
        <lane id="+E_2" index="2" disallow="pedestrian" speed="13.89" length="100.00" shape="200.00,1.60 100.00,1.60"/>
    </edge>
    <edge id="+N" from="J5" to="J4" priority="-1">
        <lane id="+N_0" index="0" allow="pedestrian" speed="13.89" length="100.00" shape="-8.00,200.00 -8.00,100.00"/>
        <lane id="+N_1" index="1" disallow="pedestrian" speed="13.89" length="100.00" shape="-4.80,200.00 -4.80,100.00"/>
        <lane id="+N_2" index="2" disallow="pedestrian" speed="13.89" length="100.00" shape="-1.60,200.00 -1.60,100.00"/>
    </edge>
    <edge id="+S" from="J7" to="J6" priority="-1">
        <lane id="+S_0" index="0" allow="pedestrian" speed="13.89" length="100.00" shape="8.00,-200.00 8.00,-100.00"/>
        <lane id="+S_1" index="1" disallow="pedestrian" speed="13.89" length="100.00" shape="4.80,-200.00 4.80,-100.00"/>
        <lane id="+S_2" index="2" disallow="pedestrian" speed="13.89" length="100.00" shape="1.60,-200.00 1.60,-100.00"/>
    </edge>
    <edge id="+W" from="J0" to="J1" priority="-1">
        <lane id="+W_0" index="0" allow="pedestrian" speed="13.89" length="100.00" shape="-200.00,-8.00 -100.00,-8.00"/>
        <lane id="+W_1" index="1" disallow="pedestrian" speed="13.89" length="100.00" shape="-200.00,-4.80 -100.00,-4.80"/>
        <lane id="+W_2" index="2" disallow="pedestrian" speed="13.89" length="100.00" shape="-200.00,-1.60 -100.00,-1.60"/>
    </edge>
    <edge id="-E" from="J3" to="J2" priority="-1">
        <lane id="-E_0" index="0" allow="pedestrian" speed="13.89" length="100.00" shape="100.00,-8.00 200.00,-8.00"/>
        <lane id="-E_1" index="1" disallow="pedestrian" speed="13.89" length="100.00" shape="100.00,-4.80 200.00,-4.80"/>
        <lane id="-E_2" index="2" disallow="pedestrian" speed="13.89" length="100.00" shape="100.00,-1.60 200.00,-1.60"/>
    </edge>
    <edge id="-E0" from="J8" to="J4" priority="-1">
        <lane id="-E0_0" index="0" allow="pedestrian" speed="13.89" length="70.56" shape="8.00,40.53 8.00,100.00"/>
        <lane id="-E0_1" index="1" disallow="pedestrian" speed="13.89" length="70.56" shape="4.80,40.53 4.80,100.00"/>
        <lane id="-E0_2" index="2" disallow="pedestrian" speed="13.89" length="70.56" shape="1.60,40.53 1.60,100.00"/>
    </edge>
    <edge id="-E1" from="J9" to="J8" priority="-1">
        <lane id="-E1_0" index="0" allow="pedestrian" speed="13.89" length="38.76" shape="8.00,14.30 8.00,28.91"/>
        <lane id="-E1_1" index="1" disallow="pedestrian" speed="13.89" length="38.76" shape="4.80,14.30 4.80,28.91"/>
        <lane id="-E1_2" index="2" disallow="pedestrian" speed="13.89" length="38.76" shape="1.60,14.30 1.60,28.91"/>
    </edge>
    <edge id="-E10" from="J12" to="J10" priority="-1" shape="75.00,0.00 73.80,-1.74 72.58,-3.39 71.35,-4.95 70.10,-6.42 68.83,-7.81 67.55,-9.12 66.26,-10.36 64.95,-11.52 63.63,-12.61 62.30,-13.63 60.96,-14.59 59.61,-15.49 58.26,-16.33 56.89,-17.11 55.52,-17.84 54.15,-18.53 52.77,-19.16 51.38,-19.75 50.00,-20.30 48.61,-20.82 47.22,-21.30 45.83,-21.74 44.45,-22.16 43.06,-22.56 41.68,-22.93 40.30,-23.28 38.92,-23.62 37.55,-23.94 36.19,-24.25 34.83,-24.55 33.48,-24.85 32.14,-25.15 30.81,-25.45 29.50,-25.75 28.19,-26.06 26.90,-26.38 25.61,-26.72 24.35,-27.07 23.10,-27.44 21.86,-27.84 20.64,-28.26 19.44,-28.70 18.26,-29.18 17.10,-29.70 15.96,-30.25 14.84,-30.84 13.75,-31.47 12.67,-32.16 11.63,-32.89 10.60,-33.67 9.60,-34.51 8.63,-35.41 7.69,-36.37 6.78,-37.39 5.89,-38.48 5.04,-39.64 4.22,-40.88 3.43,-42.19 2.67,-43.58 1.95,-45.05 1.26,-46.61 0.61,-48.26 0.00,-50.00">
        <lane id="-E10_0" index="0" disallow="pedestrian" speed="13.89" length="69.50" shape="62.45,-11.50 61.35,-12.34 60.05,-13.27 58.74,-14.15 57.44,-14.96 56.12,-15.71 54.78,-16.42 53.46,-17.09 52.13,-17.70 50.77,-18.27 49.42,-18.81 48.07,-19.31 46.72,-19.78 45.36,-20.21 44.00,-20.63 42.63,-21.02 41.28,-21.38 39.91,-21.73 38.55,-22.06 37.19,-22.38 35.84,-22.69 34.48,-22.99 33.13,-23.29 31.79,-23.59 30.46,-23.89 29.14,-24.19 27.81,-24.50 26.50,-24.83 25.19,-25.18 23.91,-25.53 22.63,-25.91 21.35,-26.32 20.10,-26.75 18.86,-27.21 17.63,-27.71 16.43,-28.25 15.24,-28.82 14.07,-29.44 12.92,-30.10 12.55,-30.34"/>
    </edge>
    <edge id="-E11" from="J8" to="J11" priority="-1" shape="0.00,50.00 -0.61,48.26 -1.26,46.61 -1.95,45.05 -2.67,43.58 -3.43,42.19 -4.22,40.88 -5.04,39.64 -5.89,38.48 -6.78,37.39 -7.69,36.37 -8.63,35.41 -9.60,34.51 -10.60,33.67 -11.63,32.89 -12.67,32.16 -13.75,31.47 -14.84,30.84 -15.96,30.25 -17.10,29.70 -18.26,29.18 -19.44,28.70 -20.64,28.26 -21.86,27.84 -23.10,27.44 -24.35,27.07 -25.61,26.72 -26.90,26.38 -28.19,26.06 -29.50,25.75 -30.81,25.45 -32.14,25.15 -33.48,24.85 -34.83,24.55 -36.19,24.25 -37.55,23.94 -38.92,23.62 -40.30,23.28 -41.68,22.93 -43.06,22.56 -44.45,22.16 -45.83,21.74 -47.22,21.30 -48.61,20.82 -50.00,20.30 -51.38,19.75 -52.77,19.16 -54.15,18.53 -55.52,17.84 -56.89,17.11 -58.26,16.33 -59.61,15.49 -60.96,14.59 -62.30,13.63 -63.63,12.61 -64.95,11.52 -66.26,10.36 -67.55,9.12 -68.83,7.81 -70.10,6.42 -71.35,4.95 -72.58,3.39 -73.80,1.74 -75.00,0.00">
        <lane id="-E11_0" index="0" disallow="pedestrian" speed="13.89" length="69.50" shape="-16.11,31.98 -16.68,31.68 -17.77,31.15 -18.89,30.65 -20.02,30.19 -21.18,29.77 -22.37,29.36 -23.57,28.97 -24.79,28.61 -26.03,28.26 -27.30,27.93 -28.57,27.62 -29.86,27.31 -31.16,27.01 -32.49,26.71 -33.83,26.41 -35.18,26.11 -36.54,25.81 -37.91,25.50 -39.29,25.18 -40.69,24.83 -42.08,24.48 -43.49,24.10 -44.90,23.69 -46.30,23.27 -47.72,22.82 -49.15,22.33 -50.58,21.79 -51.99,21.23 -53.41,20.62 -54.84,19.97 -56.26,19.26 -57.66,18.51 -59.08,17.70 -60.48,16.83 -61.87,15.91 -63.25,14.92 -64.63,13.86 -65.18,13.41"/>
    </edge>
    <edge id="-E2" from="J10" to="J9" priority="-1">
        <lane id="-E2_0" index="0" allow="pedestrian" speed="13.89" length="38.76" shape="8.00,-28.91 8.00,-14.30"/>
        <lane id="-E2_1" index="1" disallow="pedestrian" speed="13.89" length="38.76" shape="4.80,-28.91 4.80,-14.30"/>
        <lane id="-E2_2" index="2" disallow="pedestrian" speed="13.89" length="38.76" shape="1.60,-28.91 1.60,-14.30"/>
    </edge>
    <edge id="-E4" from="J6" to="J10" priority="-1">
        <lane id="-E4_0" index="0" allow="pedestrian" speed="13.89" length="70.56" shape="8.00,-100.00 8.00,-40.53"/>
        <lane id="-E4_1" index="1" disallow="pedestrian" speed="13.89" length="70.56" shape="4.80,-100.00 4.80,-40.53"/>
        <lane id="-E4_2" index="2" disallow="pedestrian" speed="13.89" length="70.56" shape="1.60,-100.00 1.60,-40.53"/>
    </edge>
    <edge id="-E6" from="J11" to="J1" priority="-1">
        <lane id="-E6_0" index="0" allow="pedestrian" speed="13.89" length="34.61" shape="-73.03,8.00 -100.00,8.00"/>
        <lane id="-E6_1" index="1" disallow="pedestrian" speed="13.89" length="34.61" shape="-73.03,4.80 -100.00,4.80"/>
        <lane id="-E6_2" index="2" disallow="pedestrian" speed="13.89" length="34.61" shape="-73.03,1.60 -100.00,1.60"/>
    </edge>
    <edge id="-E7" from="J9" to="J11" priority="-1">
        <lane id="-E7_0" index="0" allow="pedestrian" speed="13.89" length="66.54" shape="-11.10,8.00 -60.75,8.00"/>
        <lane id="-E7_1" index="1" disallow="pedestrian" speed="13.89" length="66.54" shape="-11.10,4.80 -60.75,4.80"/>
        <lane id="-E7_2" index="2" disallow="pedestrian" speed="13.89" length="66.54" shape="-11.10,1.60 -60.75,1.60"/>
    </edge>
    <edge id="-E8" from="J12" to="J9" priority="-1">
        <lane id="-E8_0" index="0" allow="pedestrian" speed="13.89" length="66.54" shape="60.75,11.20 11.10,11.20"/>
        <lane id="-E8_1" index="1" disallow="pedestrian" speed="13.89" length="66.54" shape="60.75,8.00 11.10,8.00"/>
        <lane id="-E8_2" index="2" disallow="pedestrian" speed="13.89" length="66.54" shape="60.75,4.80 11.10,4.80"/>
        <lane id="-E8_3" index="3" disallow="pedestrian" speed="13.89" length="66.54" shape="60.75,1.60 11.10,1.60"/>
    </edge>
    <edge id="-E9" from="J3" to="J12" priority="-1">
        <lane id="-E9_0" index="0" allow="pedestrian" speed="13.89" length="34.61" shape="100.00,8.00 73.03,8.00"/>
        <lane id="-E9_1" index="1" disallow="pedestrian" speed="13.89" length="34.61" shape="100.00,4.80 73.03,4.80"/>
        <lane id="-E9_2" index="2" disallow="pedestrian" speed="13.89" length="34.61" shape="100.00,1.60 73.03,1.60"/>
    </edge>
    <edge id="-N" from="J4" to="J5" priority="-1">
        <lane id="-N_0" index="0" allow="pedestrian" speed="13.89" length="100.00" shape="8.00,100.00 8.00,200.00"/>
        <lane id="-N_1" index="1" disallow="pedestrian" speed="13.89" length="100.00" shape="4.80,100.00 4.80,200.00"/>
        <lane id="-N_2" index="2" disallow="pedestrian" speed="13.89" length="100.00" shape="1.60,100.00 1.60,200.00"/>
    </edge>
    <edge id="-S" from="J6" to="J7" priority="-1">
        <lane id="-S_0" index="0" allow="pedestrian" speed="13.89" length="100.00" shape="-8.00,-100.00 -8.00,-200.00"/>
        <lane id="-S_1" index="1" disallow="pedestrian" speed="13.89" length="100.00" shape="-4.80,-100.00 -4.80,-200.00"/>
        <lane id="-S_2" index="2" disallow="pedestrian" speed="13.89" length="100.00" shape="-1.60,-100.00 -1.60,-200.00"/>
    </edge>
    <edge id="-W" from="J1" to="J0" priority="-1">
        <lane id="-W_0" index="0" allow="pedestrian" speed="13.89" length="100.00" shape="-100.00,8.00 -200.00,8.00"/>
        <lane id="-W_1" index="1" disallow="pedestrian" speed="13.89" length="100.00" shape="-100.00,4.80 -200.00,4.80"/>
        <lane id="-W_2" index="2" disallow="pedestrian" speed="13.89" length="100.00" shape="-100.00,1.60 -200.00,1.60"/>
    </edge>
    <edge id="E0" from="J4" to="J8" priority="-1">
        <lane id="E0_0" index="0" allow="pedestrian" speed="13.89" length="70.56" shape="-8.00,100.00 -8.00,40.53"/>
        <lane id="E0_1" index="1" disallow="pedestrian" speed="13.89" length="70.56" shape="-4.80,100.00 -4.80,40.53"/>
        <lane id="E0_2" index="2" disallow="pedestrian" speed="13.89" length="70.56" shape="-1.60,100.00 -1.60,40.53"/>
    </edge>
    <edge id="E1" from="J8" to="J9" priority="-1">
        <lane id="E1_0" index="0" allow="pedestrian" speed="13.89" length="38.76" shape="-8.00,28.91 -8.00,14.30"/>
        <lane id="E1_1" index="1" disallow="pedestrian" speed="13.89" length="38.76" shape="-4.80,28.91 -4.80,14.30"/>
        <lane id="E1_2" index="2" disallow="pedestrian" speed="13.89" length="38.76" shape="-1.60,28.91 -1.60,14.30"/>
    </edge>
    <edge id="E10" from="J10" to="J12" priority="-1" shape="0.00,-50.00 0.61,-48.26 1.26,-46.61 1.95,-45.05 2.67,-43.58 3.43,-42.19 4.22,-40.88 5.04,-39.64 5.89,-38.48 6.78,-37.39 7.69,-36.37 8.63,-35.41 9.60,-34.51 10.60,-33.67 11.63,-32.89 12.67,-32.16 13.75,-31.47 14.84,-30.84 15.96,-30.25 17.10,-29.70 18.26,-29.18 19.44,-28.70 20.64,-28.26 21.86,-27.84 23.10,-27.44 24.35,-27.07 25.61,-26.72 26.90,-26.38 28.19,-26.06 29.50,-25.75 30.81,-25.45 32.14,-25.15 33.48,-24.85 34.83,-24.55 36.19,-24.25 37.55,-23.94 38.92,-23.62 40.30,-23.28 41.68,-22.93 43.06,-22.56 44.45,-22.16 45.83,-21.74 47.22,-21.30 48.61,-20.82 50.00,-20.30 51.38,-19.75 52.77,-19.16 54.15,-18.53 55.52,-17.84 56.89,-17.11 58.26,-16.33 59.61,-15.49 60.96,-14.59 62.30,-13.63 63.63,-12.61 64.95,-11.52 66.26,-10.36 67.55,-9.12 68.83,-7.81 70.10,-6.42 71.35,-4.95 72.58,-3.39 73.80,-1.74 75.00,0.00">
        <lane id="E10_0" index="0" disallow="pedestrian" speed="13.89" length="69.50" shape="16.11,-31.98 16.68,-31.68 17.77,-31.15 18.89,-30.65 20.02,-30.19 21.18,-29.77 22.37,-29.36 23.57,-28.97 24.79,-28.61 26.03,-28.26 27.30,-27.93 28.57,-27.62 29.86,-27.31 31.16,-27.01 32.49,-26.71 33.83,-26.41 35.18,-26.11 36.54,-25.81 37.91,-25.50 39.29,-25.18 40.69,-24.83 42.08,-24.48 43.49,-24.10 44.90,-23.69 46.30,-23.27 47.72,-22.82 49.15,-22.33 50.58,-21.79 51.99,-21.23 53.41,-20.62 54.84,-19.97 56.26,-19.26 57.66,-18.51 59.08,-17.70 60.48,-16.83 61.87,-15.91 63.25,-14.92 64.63,-13.86 65.18,-13.41"/>
    </edge>
    <edge id="E11" from="J11" to="J8" priority="-1" shape="-75.00,0.00 -73.80,1.74 -72.58,3.39 -71.35,4.95 -70.10,6.42 -68.83,7.81 -67.55,9.12 -66.26,10.36 -64.95,11.52 -63.63,12.61 -62.30,13.63 -60.96,14.59 -59.61,15.49 -58.26,16.33 -56.89,17.11 -55.52,17.84 -54.15,18.53 -52.77,19.16 -51.38,19.75 -50.00,20.30 -48.61,20.82 -47.22,21.30 -45.83,21.74 -44.45,22.16 -43.06,22.56 -41.68,22.93 -40.30,23.28 -38.92,23.62 -37.55,23.94 -36.19,24.25 -34.83,24.55 -33.48,24.85 -32.14,25.15 -30.81,25.45 -29.50,25.75 -28.19,26.06 -26.90,26.38 -25.61,26.72 -24.35,27.07 -23.10,27.44 -21.86,27.84 -20.64,28.26 -19.44,28.70 -18.26,29.18 -17.10,29.70 -15.96,30.25 -14.84,30.84 -13.75,31.47 -12.67,32.16 -11.63,32.89 -10.60,33.67 -9.60,34.51 -8.63,35.41 -7.69,36.37 -6.78,37.39 -5.89,38.48 -5.04,39.64 -4.22,40.88 -3.43,42.19 -2.67,43.58 -1.95,45.05 -1.26,46.61 -0.61,48.26 0.00,50.00">
        <lane id="E11_0" index="0" disallow="pedestrian" speed="13.89" length="69.50" shape="-62.45,11.50 -61.35,12.34 -60.05,13.27 -58.74,14.15 -57.44,14.96 -56.12,15.71 -54.78,16.42 -53.46,17.09 -52.13,17.70 -50.77,18.27 -49.42,18.81 -48.07,19.31 -46.72,19.78 -45.36,20.21 -44.00,20.63 -42.63,21.02 -41.28,21.38 -39.91,21.73 -38.55,22.06 -37.19,22.38 -35.84,22.69 -34.48,22.99 -33.13,23.29 -31.79,23.59 -30.46,23.89 -29.14,24.19 -27.81,24.50 -26.50,24.83 -25.19,25.18 -23.91,25.53 -22.63,25.91 -21.35,26.32 -20.10,26.75 -18.86,27.21 -17.63,27.71 -16.43,28.25 -15.24,28.82 -14.07,29.44 -12.92,30.10 -12.55,30.34"/>
    </edge>
    <edge id="E2" from="J9" to="J10" priority="-1">
        <lane id="E2_0" index="0" allow="pedestrian" speed="13.89" length="38.76" shape="-8.00,-14.30 -8.00,-28.91"/>
        <lane id="E2_1" index="1" disallow="pedestrian" speed="13.89" length="38.76" shape="-4.80,-14.30 -4.80,-28.91"/>
        <lane id="E2_2" index="2" disallow="pedestrian" speed="13.89" length="38.76" shape="-1.60,-14.30 -1.60,-28.91"/>
    </edge>
    <edge id="E4" from="J10" to="J6" priority="-1">
        <lane id="E4_0" index="0" allow="pedestrian" speed="13.89" length="70.56" shape="-8.00,-40.53 -8.00,-100.00"/>
        <lane id="E4_1" index="1" disallow="pedestrian" speed="13.89" length="70.56" shape="-4.80,-40.53 -4.80,-100.00"/>
        <lane id="E4_2" index="2" disallow="pedestrian" speed="13.89" length="70.56" shape="-1.60,-40.53 -1.60,-100.00"/>
    </edge>
    <edge id="E6" from="J1" to="J11" priority="-1">
        <lane id="E6_0" index="0" allow="pedestrian" speed="13.89" length="34.61" shape="-100.00,-8.00 -73.03,-8.00"/>
        <lane id="E6_1" index="1" disallow="pedestrian" speed="13.89" length="34.61" shape="-100.00,-4.80 -73.03,-4.80"/>
        <lane id="E6_2" index="2" disallow="pedestrian" speed="13.89" length="34.61" shape="-100.00,-1.60 -73.03,-1.60"/>
    </edge>
    <edge id="E7" from="J11" to="J9" priority="-1">
        <lane id="E7_0" index="0" allow="pedestrian" speed="13.89" length="66.54" shape="-60.75,-11.20 -11.10,-11.20"/>
        <lane id="E7_1" index="1" disallow="pedestrian" speed="13.89" length="66.54" shape="-60.75,-8.00 -11.10,-8.00"/>
        <lane id="E7_2" index="2" disallow="pedestrian" speed="13.89" length="66.54" shape="-60.75,-4.80 -11.10,-4.80"/>
        <lane id="E7_3" index="3" disallow="pedestrian" speed="13.89" length="66.54" shape="-60.75,-1.60 -11.10,-1.60"/>
    </edge>
    <edge id="E8" from="J9" to="J12" priority="-1">
        <lane id="E8_0" index="0" allow="pedestrian" speed="13.89" length="66.54" shape="11.10,-8.00 60.75,-8.00"/>
        <lane id="E8_1" index="1" disallow="pedestrian" speed="13.89" length="66.54" shape="11.10,-4.80 60.75,-4.80"/>
        <lane id="E8_2" index="2" disallow="pedestrian" speed="13.89" length="66.54" shape="11.10,-1.60 60.75,-1.60"/>
    </edge>
    <edge id="E9" from="J12" to="J3" priority="-1">
        <lane id="E9_0" index="0" allow="pedestrian" speed="13.89" length="34.61" shape="73.03,-8.00 100.00,-8.00"/>
        <lane id="E9_1" index="1" disallow="pedestrian" speed="13.89" length="34.61" shape="73.03,-4.80 100.00,-4.80"/>
        <lane id="E9_2" index="2" disallow="pedestrian" speed="13.89" length="34.61" shape="73.03,-1.60 100.00,-1.60"/>
    </edge>

    <tlLogic id="J10" type="static" programID="0" offset="0">
        <phase duration="42" state="GGrGGG"/>
        <phase duration="3"  state="GyrGyy"/>
        <phase duration="42" state="GrGGrr"/>
        <phase duration="3"  state="GryGrr"/>
    </tlLogic>
    <tlLogic id="J11" type="static" programID="0" offset="0">
        <phase duration="38" state="gGGGGGr"/>
        <phase duration="3"  state="gyyGGGr"/>
        <phase duration="38" state="GrrGGGG"/>
        <phase duration="3"  state="grrGGGy"/>
    </tlLogic>
    <tlLogic id="J12" type="static" programID="0" offset="0">
        <phase duration="38" state="GGGrgGG"/>
        <phase duration="3"  state="GGGrgyy"/>
        <phase duration="38" state="GGGGGrr"/>
        <phase duration="3"  state="GGGygrr"/>
    </tlLogic>
    <tlLogic id="J8" type="static" programID="0" offset="0">
        <phase duration="42" state="GGGGGr"/>
        <phase duration="3"  state="GyyGyr"/>
        <phase duration="42" state="GrrGrG"/>
        <phase duration="3"  state="GrrGry"/>
    </tlLogic>
    <tlLogic id="J9" type="static" programID="0" offset="0">
        <phase duration="38" state="rrrGGGrrrGGG"/>
        <phase duration="3"  state="rrrgyyrrrgyy"/>
        <phase duration="38" state="GGrgrrGGrgrr"/>
        <phase duration="3"  state="yyrgrryyrgrr"/>
        <phase duration="38" state="rrGGrrrrGGrr"/>
        <phase duration="3"  state="rrygrrrrygrr"/>
    </tlLogic>

    <junction id="J0" type="dead_end" x="-200.00" y="0.00" incLanes="-W_0 -W_1 -W_2" intLanes="" shape="-200.00,0.00 -200.00,9.60 -200.00,0.00"/>
    <junction id="J1" type="priority" x="-100.00" y="0.00" incLanes="-E6_0 -E6_1 -E6_2 +W_0 +W_1 +W_2" intLanes="" shape="-100.00,9.60 -100.00,-9.60 -100.00,9.60">
        <request index="0" response="0000" foes="0000"/>
        <request index="1" response="0000" foes="0000"/>
        <request index="2" response="0000" foes="0000"/>
        <request index="3" response="0000" foes="0000"/>
    </junction>
    <junction id="J10" type="traffic_light" x="0.00" y="-50.00" incLanes="E2_0 E2_1 E2_2 -E10_0 -E4_0 -E4_1 -E4_2" intLanes="" shape="-9.60,-28.91 9.60,-28.91 9.74,-29.61 9.92,-29.77 10.17,-29.80 10.50,-29.71 10.82,-29.55 17.97,-32.83 15.41,-34.17 13.32,-35.48 11.69,-36.78 10.53,-38.05 9.83,-39.30 9.60,-40.53 -9.60,-40.53">
        <request index="0" response="000000" foes="000100"/>
        <request index="1" response="000000" foes="000100"/>
        <request index="2" response="110011" foes="110011"/>
        <request index="3" response="000000" foes="000000"/>
        <request index="4" response="000000" foes="000100"/>
        <request index="5" response="000000" foes="000100"/>
    </junction>
    <junction id="J11" type="traffic_light" x="-75.00" y="0.00" incLanes="-E11_0 -E7_0 -E7_1 -E7_2 E6_0 E6_1 E6_2" intLanes="" shape="-66.53,14.36 -61.08,10.54 -61.58,10.02 -61.61,9.83 -61.47,9.70 -61.19,9.63 -60.75,9.60 -60.75,-12.80 -63.42,-12.56 -65.34,-11.97 -68.44,-10.43 -70.36,-9.84 -73.03,-9.60 -73.03,9.60 -70.25,10.26 -69.44,11.02 -68.70,11.99 -67.81,13.12">
        <request index="0" response="0000110" foes="0000110"/>
        <request index="1" response="0000000" foes="1000001"/>
        <request index="2" response="0000000" foes="1000001"/>
        <request index="3" response="0000000" foes="0000000"/>
        <request index="4" response="0000000" foes="0000000"/>
        <request index="5" response="0000000" foes="0000000"/>
        <request index="6" response="0000110" foes="0000110"/>
    </junction>
    <junction id="J12" type="traffic_light" x="75.00" y="0.00" incLanes="-E9_0 -E9_1 -E9_2 E10_0 E8_0 E8_1 E8_2" intLanes="" shape="73.03,9.60 73.03,-9.60 70.25,-10.26 69.44,-11.02 68.70,-11.99 67.81,-13.12 66.53,-14.36 61.08,-10.54 61.58,-10.02 61.61,-9.83 61.47,-9.70 61.19,-9.63 60.75,-9.60 60.75,12.80 63.42,12.56 65.34,11.97 68.44,10.43 70.36,9.84">
        <request index="0" response="0000000" foes="0000000"/>
        <request index="1" response="0000000" foes="0000000"/>
        <request index="2" response="0000000" foes="0000000"/>
        <request index="3" response="1100000" foes="1100000"/>
        <request index="4" response="1100000" foes="1100000"/>
        <request index="5" response="0000000" foes="0011000"/>
        <request index="6" response="0000000" foes="0011000"/>
    </junction>
    <junction id="J2" type="dead_end" x="200.00" y="0.00" incLanes="-E_0 -E_1 -E_2" intLanes="" shape="200.00,0.00 200.00,-9.60 200.00,0.00"/>
    <junction id="J3" type="priority" x="100.00" y="0.00" incLanes="+E_0 +E_1 +E_2 E9_0 E9_1 E9_2" intLanes="" shape="100.00,9.60 100.00,-9.60 100.00,9.60">
        <request index="0" response="0000" foes="0000"/>
        <request index="1" response="0000" foes="0000"/>
        <request index="2" response="0000" foes="0000"/>
        <request index="3" response="0000" foes="0000"/>
    </junction>
    <junction id="J4" type="priority" x="0.00" y="100.00" incLanes="+N_0 +N_1 +N_2 -E0_0 -E0_1 -E0_2" intLanes="" shape="-9.60,100.00 9.60,100.00 -9.60,100.00">
        <request index="0" response="0000" foes="0000"/>
        <request index="1" response="0000" foes="0000"/>
        <request index="2" response="0000" foes="0000"/>
        <request index="3" response="0000" foes="0000"/>
    </junction>
    <junction id="J5" type="dead_end" x="0.00" y="200.00" incLanes="-N_0 -N_1 -N_2" intLanes="" shape="0.00,200.00 9.60,200.00 0.00,200.00"/>
    <junction id="J6" type="priority" x="0.00" y="-100.00" incLanes="E4_0 E4_1 E4_2 +S_0 +S_1 +S_2" intLanes="" shape="-9.60,-100.00 9.60,-100.00 -9.60,-100.00">
        <request index="0" response="0000" foes="0000"/>
        <request index="1" response="0000" foes="0000"/>
        <request index="2" response="0000" foes="0000"/>
        <request index="3" response="0000" foes="0000"/>
    </junction>
    <junction id="J7" type="dead_end" x="0.00" y="-200.00" incLanes="-S_0 -S_1 -S_2" intLanes="" shape="0.00,-200.00 -9.60,-200.00 0.00,-200.00"/>
    <junction id="J8" type="traffic_light" x="0.00" y="50.00" incLanes="E0_0 E0_1 E0_2 -E1_0 -E1_1 -E1_2 E11_0" intLanes="" shape="-9.60,40.53 9.60,40.53 9.60,28.91 -9.60,28.91 -9.74,29.61 -9.92,29.77 -10.17,29.80 -10.50,29.71 -10.82,29.55 -17.97,32.83 -15.41,34.17 -13.32,35.48 -11.69,36.78 -10.53,38.05 -9.83,39.30">
        <request index="0" response="000000" foes="000000"/>
        <request index="1" response="000000" foes="100000"/>
        <request index="2" response="000000" foes="100000"/>
        <request index="3" response="000000" foes="100000"/>
        <request index="4" response="000000" foes="100000"/>
        <request index="5" response="011110" foes="011110"/>
    </junction>
    <junction id="J9" type="traffic_light" x="0.00" y="0.00" incLanes="E1_0 E1_1 E1_2 -E8_0 -E8_1 -E8_2 -E8_3 -E2_0 -E2_1 -E2_2 E7_0 E7_1 E7_2 E7_3" intLanes="" shape="-9.60,14.30 9.60,14.30 9.77,13.47 9.98,13.18 10.27,12.97 10.64,12.84 11.10,12.80 11.10,-9.60 10.27,-10.12 9.97,-10.77 9.77,-11.69 9.64,-12.86 9.60,-14.30 -9.60,-14.30 -9.77,-13.47 -9.98,-13.18 -10.27,-12.97 -10.64,-12.84 -11.10,-12.80 -11.10,9.60 -10.27,10.12 -9.97,10.77 -9.77,11.69 -9.64,12.86">
        <request index="0"  response="111000110000" foes="111100110000"/>
        <request index="1"  response="111000110000" foes="111100110000"/>
        <request index="2"  response="110011110000" foes="110011110000"/>
        <request index="3"  response="000000000000" foes="000011000000"/>
        <request index="4"  response="000000000000" foes="000111000111"/>
        <request index="5"  response="000000000000" foes="000111000111"/>
        <request index="6"  response="110000111000" foes="110000111100"/>
        <request index="7"  response="110000111000" foes="110000111100"/>
        <request index="8"  response="110000110011" foes="110000110011"/>
        <request index="9"  response="000000000000" foes="000000000011"/>
        <request index="10" response="000000000000" foes="000111000111"/>
        <request index="11" response="000000000000" foes="000111000111"/>
    </junction>

    <connection from="+E" to="-E9" fromLane="1" toLane="1" dir="s" state="M"/>
    <connection from="+E" to="-E9" fromLane="2" toLane="2" dir="s" state="M"/>
    <connection from="+N" to="E0" fromLane="1" toLane="1" dir="s" state="M"/>
    <connection from="+N" to="E0" fromLane="2" toLane="2" dir="s" state="M"/>
    <connection from="+S" to="-E4" fromLane="1" toLane="1" dir="s" state="M"/>
    <connection from="+S" to="-E4" fromLane="2" toLane="2" dir="s" state="M"/>
    <connection from="+W" to="E6" fromLane="1" toLane="1" dir="s" state="M"/>
    <connection from="+W" to="E6" fromLane="2" toLane="2" dir="s" state="M"/>
    <connection from="-E0" to="-N" fromLane="1" toLane="1" dir="s" state="M"/>
    <connection from="-E0" to="-N" fromLane="2" toLane="2" dir="s" state="M"/>
    <connection from="-E1" to="-E0" fromLane="1" toLane="1" tl="J8" linkIndex="3" dir="s" state="O"/>
    <connection from="-E1" to="-E0" fromLane="2" toLane="2" tl="J8" linkIndex="4" dir="s" state="O"/>
    <connection from="-E10" to="E4" fromLane="0" toLane="2" tl="J10" linkIndex="2" dir="s" state="o"/>
    <connection from="-E11" to="-E6" fromLane="0" toLane="1" tl="J11" linkIndex="0" dir="r" state="o"/>
    <connection from="-E2" to="-E1" fromLane="1" toLane="1" tl="J9" linkIndex="6" dir="s" state="o"/>
    <connection from="-E2" to="-E1" fromLane="2" toLane="2" tl="J9" linkIndex="7" dir="s" state="o"/>
    <connection from="-E2" to="-E7" fromLane="2" toLane="2" tl="J9" linkIndex="8" dir="l" state="o"/>
    <connection from="-E4" to="E10" fromLane="1" toLane="0" tl="J10" linkIndex="3" dir="R" state="O"/>
    <connection from="-E4" to="-E2" fromLane="1" toLane="1" tl="J10" linkIndex="4" dir="s" state="O"/>
    <connection from="-E4" to="-E2" fromLane="2" toLane="2" tl="J10" linkIndex="5" dir="s" state="O"/>
    <connection from="-E6" to="-W" fromLane="1" toLane="1" dir="s" state="M"/>
    <connection from="-E6" to="-W" fromLane="2" toLane="2" dir="s" state="M"/>
    <connection from="-E7" to="-E6" fromLane="1" toLane="1" tl="J11" linkIndex="1" dir="s" state="O"/>
    <connection from="-E7" to="-E6" fromLane="2" toLane="2" tl="J11" linkIndex="2" dir="s" state="O"/>
    <connection from="-E8" to="-E1" fromLane="1" toLane="1" tl="J9" linkIndex="3" dir="r" state="O"/>
    <connection from="-E8" to="-E7" fromLane="2" toLane="1" tl="J9" linkIndex="4" dir="s" state="O"/>
    <connection from="-E8" to="-E7" fromLane="3" toLane="2" tl="J9" linkIndex="5" dir="s" state="O"/>
    <connection from="-E9" to="-E8" fromLane="1" toLane="1" tl="J12" linkIndex="0" dir="s" state="O"/>
    <connection from="-E9" to="-E8" fromLane="1" toLane="2" tl="J12" linkIndex="1" dir="s" state="O"/>
    <connection from="-E9" to="-E8" fromLane="1" toLane="3" tl="J12" linkIndex="2" dir="s" state="O"/>
    <connection from="-E9" to="-E10" fromLane="2" toLane="0" tl="J12" linkIndex="3" dir="l" state="o"/>
    <connection from="E0" to="-E11" fromLane="1" toLane="0" tl="J8" linkIndex="0" dir="R" state="O"/>
    <connection from="E0" to="E1" fromLane="1" toLane="1" tl="J8" linkIndex="1" dir="s" state="O"/>
    <connection from="E0" to="E1" fromLane="2" toLane="2" tl="J8" linkIndex="2" dir="s" state="O"/>
    <connection from="E1" to="E2" fromLane="1" toLane="1" tl="J9" linkIndex="0" dir="s" state="o"/>
    <connection from="E1" to="E2" fromLane="2" toLane="2" tl="J9" linkIndex="1" dir="s" state="o"/>
    <connection from="E1" to="E8" fromLane="2" toLane="2" tl="J9" linkIndex="2" dir="l" state="o"/>
    <connection from="E10" to="E9" fromLane="0" toLane="1" tl="J12" linkIndex="4" dir="r" state="o"/>