<?xml version="1.0" encoding="UTF-8"?>

<!-- generated on 2023-04-09 17:00:38 by Eclipse SUMO netedit Version 1.15.0
<configuration xmlns:xsi="http://www.w3.org/2001/XMLSchema-instance" xsi:noNamespaceSchemaLocation="http://sumo.dlr.de/xsd/netconvertConfiguration.xsd">

    <input>
        <sumo-net-file value="Z:\Users\708891\Desktop\AP research\Simulations\divergingDiamond.net.xml"/>
    </input>

    <output>
        <output-file value="Z:\Users\708891\Desktop\AP research\Simulations\divergingDiamond.net.xml"/>
    </output>

    <processing>
        <geometry.min-radius.fix.railways value="false"/>
        <geometry.max-grade.fix value="false"/>
        <offset.disable-normalization value="true"/>
        <lefthand value="0"/>
    </processing>

    <junctions>
        <no-internal-links value="true"/>
        <no-turnarounds value="true"/>
        <junctions.corner-detail value="5"/>
        <junctions.limit-turn-speed value="5.50"/>
        <rectangular-lane-cut value="0"/>
    </junctions>

    <pedestrian>
        <walkingareas value="0"/>
    </pedestrian>

</configuration>
-->

<net version="1.9" junctionCornerDetail="5" limitTurnSpeed="5.50" xmlns:xsi="http://www.w3.org/2001/XMLSchema-instance" xsi:noNamespaceSchemaLocation="http://sumo.dlr.de/xsd/net_file.xsd">

    <location netOffset="0.00,0.00" convBoundary="-200.00,-200.00,200.00,200.00" origBoundary="-10000000000.00,-10000000000.00,10000000000.00,10000000000.00" projParameter="!"/>

    <edge id="+E" from="J2" to="J3" priority="-1">
        <lane id="+E_0" index="0" allow="pedestrian" speed="13.89" length="120.53" shape="200.00,8.00 92.94,8.00"/>
        <lane id="+E_1" index="1" disallow="pedestrian" speed="13.89" length="120.53" shape="200.00,4.80 92.94,4.80"/>
        <lane id="+E_2" index="2" disallow="pedestrian" speed="13.89" length="120.53" shape="200.00,1.60 92.94,1.60"/>
    </edge>
    <edge id="+N" from="J5" to="J4" priority="-1">
        <lane id="+N_0" index="0" allow="pedestrian" speed="13.89" length="100.00" shape="-8.00,200.00 -8.00,100.00"/>
        <lane id="+N_1" index="1" disallow="pedestrian" speed="13.89" length="100.00" shape="-4.80,200.00 -4.80,100.00"/>
        <lane id="+N_2" index="2" disallow="pedestrian" speed="13.89" length="100.00" shape="-1.60,200.00 -1.60,100.00"/>
    </edge>
    <edge id="+S" from="J7" to="J6" priority="-1">
        <lane id="+S_0" index="0" allow="pedestrian" speed="13.89" length="100.00" shape="8.00,-200.00 8.00,-100.00"/>
        <lane id="+S_1" index="1" disallow="pedestrian" speed="13.89" length="100.00" shape="4.80,-200.00 4.80,-100.00"/>
        <lane id="+S_2" index="2" disallow="pedestrian" speed="13.89" length="100.00" shape="1.60,-200.00 1.60,-100.00"/>
    </edge>
    <edge id="+W" from="J0" to="J1" priority="-1">
        <lane id="+W_0" index="0" allow="pedestrian" speed="13.89" length="120.53" shape="-200.00,-8.00 -92.94,-8.00"/>
        <lane id="+W_1" index="1" disallow="pedestrian" speed="13.89" length="120.53" shape="-200.00,-4.80 -92.94,-4.80"/>
        <lane id="+W_2" index="2" disallow="pedestrian" speed="13.89" length="120.53" shape="-200.00,-1.60 -92.94,-1.60"/>
    </edge>
    <edge id="-E" from="J3" to="J2" priority="-1">
        <lane id="-E_0" index="0" allow="pedestrian" speed="13.89" length="120.53" shape="92.94,-8.00 200.00,-8.00"/>
        <lane id="-E_1" index="1" disallow="pedestrian" speed="13.89" length="120.53" shape="92.94,-4.80 200.00,-4.80"/>
        <lane id="-E_2" index="2" disallow="pedestrian" speed="13.89" length="120.53" shape="92.94,-1.60 200.00,-1.60"/>
    </edge>
    <edge id="-E30" from="J21" to="J6" priority="-1">
        <lane id="-E30_0" index="0" allow="pedestrian" speed="13.89" length="62.50" shape="-8.00,-41.85 -8.00,-100.00"/>
        <lane id="-E30_1" index="1" disallow="pedestrian" speed="13.89" length="62.50" shape="-4.80,-41.85 -4.80,-100.00"/>
        <lane id="-E30_2" index="2" disallow="pedestrian" speed="13.89" length="62.50" shape="-1.60,-41.85 -1.60,-100.00"/>
    </edge>
    <edge id="-E31" from="J22" to="J4" priority="-1">
        <lane id="-E31_0" index="0" allow="pedestrian" speed="13.89" length="62.50" shape="8.00,41.85 8.00,100.00"/>
        <lane id="-E31_1" index="1" disallow="pedestrian" speed="13.89" length="62.50" shape="4.80,41.85 4.80,100.00"/>
        <lane id="-E31_2" index="2" disallow="pedestrian" speed="13.89" length="62.50" shape="1.60,41.85 1.60,100.00"/>
    </edge>
    <edge id="-E8" from="J3" to="J1" priority="-1">
        <lane id="-E8_0" index="0" allow="pedestrian" speed="13.89" length="158.94" shape="69.70,8.00 -69.70,8.00"/>
        <lane id="-E8_1" index="1" disallow="pedestrian" speed="13.89" length="158.94" shape="69.70,4.80 -69.70,4.80"/>
        <lane id="-E8_2" index="2" disallow="pedestrian" speed="13.89" length="158.94" shape="69.70,1.60 -69.70,1.60"/>
    </edge>
    <edge id="-N" from="J4" to="J5" priority="-1">
        <lane id="-N_0" index="0" allow="pedestrian" speed="13.89" length="100.00" shape="8.00,100.00 8.00,200.00"/>
        <lane id="-N_1" index="1" disallow="pedestrian" speed="13.89" length="100.00" shape="4.80,100.00 4.80,200.00"/>
        <lane id="-N_2" index="2" disallow="pedestrian" speed="13.89" length="100.00" shape="1.60,100.00 1.60,200.00"/>
    </edge>
    <edge id="-S" from="J6" to="J7" priority="-1">
        <lane id="-S_0" index="0" allow="pedestrian" speed="13.89" length="100.00" shape="-8.00,-100.00 -8.00,-200.00"/>
        <lane id="-S_1" index="1" disallow="pedestrian" speed="13.89" length="100.00" shape="-4.80,-100.00 -4.80,-200.00"/>
        <lane id="-S_2" index="2" disallow="pedestrian" speed="13.89" length="100.00" shape="-1.60,-100.00 -1.60,-200.00"/>
    </edge>
    <edge id="-W" from="J1" to="J0" priority="-1">
        <lane id="-W_0" index="0" allow="pedestrian" speed="13.89" length="120.53" shape="-92.94,8.00 -200.00,8.00"/>
        <lane id="-W_1" index="1" disallow="pedestrian" speed="13.89" length="120.53" shape="-92.94,4.80 -200.00,4.80"/>
        <lane id="-W_2" index="2" disallow="pedestrian" speed="13.89" length="120.53" shape="-92.94,1.60 -200.00,1.60"/>
    </edge>
    <edge id="E14" from="J1" to="J16" priority="-1">
        <lane id="E14_0" index="0" disallow="pedestrian" speed="13.89" length="41.42" shape="-71.29,-14.63 -46.69,-22.83"/>
        <lane id="E14_1" index="1" disallow="pedestrian" speed="13.89" length="41.42" shape="-70.28,-11.59 -45.68,-19.79"/>
    </edge>
    <edge id="E16" from="J18" to="J3" priority="-1">
        <lane id="E16_0" index="0" disallow="pedestrian" speed="13.89" length="41.42" shape="46.69,-22.83 71.29,-14.63"/>
        <lane id="E16_1" index="1" disallow="pedestrian" speed="13.89" length="41.42" shape="45.68,-19.79 70.28,-11.59"/>
    </edge>
    <edge id="E17" from="J3" to="J19" priority="-1">
        <lane id="E17_0" index="0" disallow="pedestrian" speed="13.89" length="41.42" shape="71.29,14.63 46.69,22.83"/>
        <lane id="E17_1" index="1" disallow="pedestrian" speed="13.89" length="41.42" shape="70.28,11.59 45.68,19.79"/>
    </edge>
    <edge id="E18" from="J20" to="J1" priority="-1">
        <lane id="E18_0" index="0" disallow="pedestrian" speed="13.89" length="41.42" shape="-46.69,22.83 -71.29,14.63"/>
        <lane id="E18_1" index="1" disallow="pedestrian" speed="13.89" length="41.42" shape="-45.68,19.79 -70.28,11.59"/>
    </edge>
    <edge id="E30" from="J6" to="J21" priority="-1">
        <lane id="E30_0" index="0" allow="pedestrian" speed="13.89" length="62.50" shape="8.00,-100.00 8.00,-41.85"/>
        <lane id="E30_1" index="1" disallow="pedestrian" speed="13.89" length="62.50" shape="4.80,-100.00 4.80,-41.85"/>
        <lane id="E30_2" index="2" disallow="pedestrian" speed="13.89" length="62.50" shape="1.60,-100.00 1.60,-41.85"/>
    </edge>
    <edge id="E31" from="J4" to="J22" priority="-1">
        <lane id="E31_0" index="0" allow="pedestrian" speed="13.89" length="62.50" shape="-8.00,100.00 -8.00,41.85"/>
        <lane id="E31_1" index="1" disallow="pedestrian" speed="13.89" length="62.50" shape="-4.80,100.00 -4.80,41.85"/>
        <lane id="E31_2" index="2" disallow="pedestrian" speed="13.89" length="62.50" shape="-1.60,100.00 -1.60,41.85"/>
    </edge>
    <edge id="E33" from="J16" to="J21" priority="-1">
        <lane id="E33_0" index="0" disallow="pedestrian" speed="13.89" length="47.60" shape="-33.88,-28.20 -10.35,-38.29"/>
        <lane id="E33_1" index="1" disallow="pedestrian" speed="13.89" length="47.60" shape="-32.62,-25.26 -9.09,-35.35"/>
    </edge>
    <edge id="E34" from="J21" to="J18" priority="-1">
        <lane id="E34_0" index="0" disallow="pedestrian" speed="13.89" length="47.60" shape="10.35,-38.29 33.88,-28.20"/>
        <lane id="E34_1" index="1" disallow="pedestrian" speed="13.89" length="47.60" shape="9.09,-35.35 32.62,-25.26"/>
    </edge>
    <edge id="E35" from="J22" to="J20" priority="-1">
        <lane id="E35_0" index="0" disallow="pedestrian" speed="13.89" length="47.60" shape="-10.35,38.29 -33.88,28.20"/>
        <lane id="E35_1" index="1" disallow="pedestrian" speed="13.89" length="47.60" shape="-9.09,35.35 -32.62,25.26"/>
    </edge>
    <edge id="E36" from="J19" to="J22" priority="-1">
        <lane id="E36_0" index="0" disallow="pedestrian" speed="13.89" length="47.60" shape="33.88,28.20 10.35,38.29"/>
        <lane id="E36_1" index="1" disallow="pedestrian" speed="13.89" length="47.60" shape="32.62,25.26 9.09,35.35"/>
    </edge>
    <edge id="E37" from="J22" to="J23" priority="-1" shape="0.00,37.50 12.50,25.00 12.50,12.50">
        <lane id="E37_0" index="0" allow="pedestrian" speed="13.89" length="30.18" shape="2.19,23.99 4.18,22.01"/>
        <lane id="E37_1" index="1" disallow="pedestrian" speed="13.89" length="30.18" shape="4.45,26.26 7.70,23.01 7.70,22.13"/>
        <lane id="E37_2" index="2" disallow="pedestrian" speed="13.89" length="30.18" shape="6.72,28.52 10.90,24.34 10.90,22.25"/>
    </edge>
    <edge id="E38" from="J24" to="J22" priority="-1" shape="-12.50,12.50 -12.50,25.00 0.00,37.50">
        <lane id="E38_0" index="0" allow="pedestrian" speed="13.89" length="30.18" shape="-4.18,22.01 -2.19,23.99"/>
        <lane id="E38_1" index="1" disallow="pedestrian" speed="13.89" length="30.18" shape="-7.70,22.13 -7.70,23.01 -4.45,26.26"/>
        <lane id="E38_2" index="2" disallow="pedestrian" speed="13.89" length="30.18" shape="-10.90,22.25 -10.90,24.34 -6.72,28.52"/>
    </edge>
    <edge id="E39" from="J21" to="J25" priority="-1" shape="0.00,-37.50 -12.50,-25.00 -12.50,-12.50">
        <lane id="E39_0" index="0" allow="pedestrian" speed="13.89" length="30.18" shape="-2.19,-23.99 -4.18,-22.01"/>
        <lane id="E39_1" index="1" disallow="pedestrian" speed="13.89" length="30.18" shape="-4.45,-26.26 -7.70,-23.01 -7.70,-22.13"/>
        <lane id="E39_2" index="2" disallow="pedestrian" speed="13.89" length="30.18" shape="-6.72,-28.52 -10.90,-24.34 -10.90,-22.25"/>
    </edge>
    <edge id="E40" from="J26" to="J21" priority="-1" shape="12.50,-12.50 12.50,-25.00 0.00,-37.50">
        <lane id="E40_0" index="0" allow="pedestrian" speed="13.89" length="30.18" shape="4.18,-22.01 2.19,-23.99"/>
        <lane id="E40_1" index="1" disallow="pedestrian" speed="13.89" length="30.18" shape="7.70,-22.13 7.70,-23.01 4.45,-26.26"/>
        <lane id="E40_2" index="2" disallow="pedestrian" speed="13.89" length="30.18" shape="10.90,-22.25 10.90,-24.34 6.72,-28.52"/>
    </edge>
    <edge id="E41" from="J25" to="J24" priority="-1">
        <lane id="E41_0" index="0" allow="pedestrian" speed="13.89" length="25.00" shape="-4.50,-9.22 -4.50,9.22"/>
        <lane id="E41_1" index="1" disallow="pedestrian" speed="13.89" length="25.00" shape="-7.70,-9.22 -7.70,9.22"/>
        <lane id="E41_2" index="2" disallow="pedestrian" speed="13.89" length="25.00" shape="-10.90,-9.22 -10.90,9.22"/>
    </edge>
    <edge id="E42" from="J23" to="J26" priority="-1">
        <lane id="E42_0" index="0" allow="pedestrian" speed="13.89" length="25.00" shape="4.50,9.22 4.50,-9.22"/>
        <lane id="E42_1" index="1" disallow="pedestrian" speed="13.89" length="25.00" shape="7.70,9.22 7.70,-9.22"/>
        <lane id="E42_2" index="2" disallow="pedestrian" speed="13.89" length="25.00" shape="10.90,9.22 10.90,-9.22"/>
    </edge>
    <edge id="E43" from="J24" to="J20" priority="-1">
        <lane id="E43_0" index="0" disallow="pedestrian" speed="13.89" length="31.87" shape="-16.03,18.10 -32.21,21.34"/>
        <lane id="E43_1" index="1" disallow="pedestrian" speed="13.89" length="31.87" shape="-16.66,14.96 -32.84,18.20"/>
    </edge>
    <edge id="E44" from="J19" to="J23" priority="-1">
        <lane id="E44_0" index="0" disallow="pedestrian" speed="13.89" length="31.87" shape="32.21,21.34 16.03,18.10"/>
        <lane id="E44_1" index="1" disallow="pedestrian" speed="13.89" length="31.87" shape="32.84,18.20 16.66,14.96"/>
    </edge>
    <edge id="E45" from="J16" to="J25" priority="-1">
        <lane id="E45_0" index="0" disallow="pedestrian" speed="13.89" length="31.87" shape="-32.21,-21.34 -16.03,-18.10"/>
        <lane id="E45_1" index="1" disallow="pedestrian" speed="13.89" length="31.87" shape="-32.84,-18.20 -16.66,-14.96"/>
    </edge>
    <edge id="E46" from="J26" to="J18" priority="-1">
        <lane id="E46_0" index="0" disallow="pedestrian" speed="13.89" length="31.87" shape="16.03,-18.10 32.21,-21.34"/>
        <lane id="E46_1" index="1" disallow="pedestrian" speed="13.89" length="31.87" shape="16.66,-14.96 32.84,-18.20"/>
    </edge>
    <edge id="E8" from="J1" to="J3" priority="-1">
        <lane id="E8_0" index="0" allow="pedestrian" speed="13.89" length="158.94" shape="-69.70,-8.00 69.70,-8.00"/>
        <lane id="E8_1" index="1" disallow="pedestrian" speed="13.89" length="158.94" shape="-69.70,-4.80 69.70,-4.80"/>
        <lane id="E8_2" index="2" disallow="pedestrian" speed="13.89" length="158.94" shape="-69.70,-1.60 69.70,-1.60"/>
    </edge>

    <tlLogic id="J1" type="static" programID="0" offset="0">
        <phase duration="42" state="ggGGGGGG"/>
    </tlLogic>
    <tlLogic id="J18" type="static" programID="0" offset="0">
        <phase duration="42" state="GGgg"/>
    </tlLogic>
    <tlLogic id="J20" type="static" programID="0" offset="0">
        <phase duration="42" state="GGgg"/>
    </tlLogic>
    <tlLogic id="J21" type="static" programID="0" offset="0">
        <phase duration="27" state="GGGGrrgrr"/>
        <phase duration="3"  state="yyGGrrgrr"/>
        <phase duration="27" state="rrGGGGGrr"/>
        <phase duration="3"  state="rrgyyyGrr"/>
        <phase duration="27" state="rrgrrrGGG"/>
        <phase duration="3"  state="rrgrrrgyy"/>
    </tlLogic>
    <tlLogic id="J22" type="static" programID="0" offset="0">
        <phase duration="27" state="GGrrgrrGG"/>
        <phase duration="3"  state="GGrrgrryy"/>
        <phase duration="27" state="GGGGGrrrr"/>
        <phase duration="3"  state="gyyygrrrr"/>
        <phase duration="27" state="grrrGGGrr"/>
        <phase duration="3"  state="grrrGyyrr"/>
    </tlLogic>
    <tlLogic id="J3" type="static" programID="0" offset="0">
        <phase duration="42" state="GGGGggGG"/>
    </tlLogic>

    <junction id="J0" type="dead_end" x="-200.00" y="0.00" incLanes="-W_0 -W_1 -W_2" intLanes="" shape="-200.00,0.00 -200.00,9.60 -200.00,0.00"/>
    <junction id="J1" type="traffic_light" x="-100.00" y="0.00" incLanes="E18_0 E18_1 -E8_0 -E8_1 -E8_2 +W_0 +W_1 +W_2" intLanes="" shape="-71.80,16.15 -69.78,10.07 -69.70,9.60 -69.70,-9.60 -69.78,-10.07 -71.80,-16.15 -76.24,-14.45 -79.49,-12.89 -82.16,-11.56 -84.87,-10.52 -88.26,-9.84 -92.94,-9.60 -92.94,9.60 -88.26,9.84 -84.87,10.52 -82.16,11.56 -79.49,12.89 -76.24,14.45">
        <request index="0" response="00001110" foes="00001110"/>
        <request index="1" response="00001100" foes="00001101"/>
        <request index="2" response="00000000" foes="00000011"/>
        <request index="3" response="00000000" foes="00000011"/>
        <request index="4" response="00000000" foes="00000000"/>
        <request index="5" response="00000000" foes="00000000"/>
        <request index="6" response="00000000" foes="00000000"/>
        <request index="7" response="00000000" foes="00000000"/>
    </junction>
    <junction id="J16" type="priority" x="-43.75" y="-18.75" incLanes="E14_0 E14_1" intLanes="" shape="-33.15,-16.63 -31.90,-22.91 -32.56,-23.13 -32.65,-23.27 -32.59,-23.43 -32.37,-23.60 -31.99,-23.79 -34.51,-29.67 -47.20,-24.35 -45.17,-18.28 -42.70,-18.90 -40.82,-18.97 -39.23,-18.62 -37.63,-18.01 -35.71,-17.30">
        <request index="0" response="0000" foes="0000"/>
        <request index="1" response="0000" foes="0000"/>
        <request index="2" response="0000" foes="0000"/>
        <request index="3" response="0000" foes="0000"/>
    </junction>
    <junction id="J18" type="traffic_light" x="43.75" y="-18.75" incLanes="E34_0 E34_1 E46_0 E46_1" intLanes="" shape="45.17,-18.28 47.20,-24.35 34.51,-29.67 31.99,-23.79 32.59,-23.43 32.65,-23.27 32.56,-23.13 32.31,-23.01 31.90,-22.91 33.15,-16.63 35.71,-17.30 37.63,-18.01 39.23,-18.62 40.82,-18.97 42.70,-18.90">
        <request index="0" response="0000" foes="1100"/>
        <request index="1" response="0000" foes="1100"/>
        <request index="2" response="1011" foes="1011"/>
        <request index="3" response="0011" foes="0111"/>
    </junction>
    <junction id="J19" type="priority" x="43.75" y="18.75" incLanes="E17_0 E17_1" intLanes="" shape="47.20,24.35 45.17,18.28 42.70,18.90 40.82,18.97 39.23,18.62 37.63,18.01 35.71,17.30 33.15,16.63 31.90,22.91 32.56,23.13 32.65,23.27 32.59,23.43 32.37,23.60 31.99,23.79 34.51,29.67">
        <request index="0" response="0000" foes="0000"/>
        <request index="1" response="0000" foes="0000"/>
        <request index="2" response="0000" foes="0000"/>
        <request index="3" response="0000" foes="0000"/>
    </junction>
    <junction id="J2" type="dead_end" x="200.00" y="0.00" incLanes="-E_0 -E_1 -E_2" intLanes="" shape="200.00,0.00 200.00,-9.60 200.00,0.00"/>
    <junction id="J20" type="traffic_light" x="-43.75" y="18.75" incLanes="E35_0 E35_1 E43_0 E43_1" intLanes="" shape="-34.51,29.67 -31.99,23.79 -32.59,23.43 -32.65,23.27 -32.56,23.13 -32.31,23.01 -31.90,22.91 -33.15,16.63 -35.71,17.30 -37.63,18.01 -39.23,18.62 -40.82,18.97 -42.70,18.90 -45.17,18.28 -47.20,24.35">
        <request index="0" response="0000" foes="1100"/>
        <request index="1" response="0000" foes="1100"/>
        <request index="2" response="1011" foes="1011"/>
        <request index="3" response="0011" foes="0111"/>
    </junction>
    <junction id="J21" type="traffic_light" x="0.00" y="-37.50" incLanes="E40_0 E40_1 E40_2 E30_0 E30_1 E30_2 E33_0 E33_1" intLanes="" shape="1.06,-22.86 7.85,-29.65 8.46,-33.88 10.98,-39.76 10.21,-40.25 9.94,-40.58 9.75,-40.95 9.64,-41.37 9.60,-41.85 -9.60,-41.85 -9.75,-40.95 -9.94,-40.58 -10.21,-40.25 -10.56,-39.98 -10.98,-39.76 -8.46,-33.88 -7.85,-29.65 -1.06,-22.86 -0.35,-23.33 0.00,-23.39 0.35,-23.33 0.71,-23.16">
        <request index="0" response="000000000" foes="111110000"/>
        <request index="1" response="000000000" foes="111110000"/>
        <request index="2" response="000000000" foes="110000000"/>
        <request index="3" response="000000000" foes="110000000"/>
        <request index="4" response="000000011" foes="110000011"/>
        <request index="5" response="000000011" foes="110000011"/>
        <request index="6" response="000000011" foes="000000011"/>
        <request index="7" response="000111111" foes="000111111"/>
        <request index="8" response="000111111" foes="000111111"/>
    </junction>
    <junction id="J22" type="traffic_light" x="0.00" y="37.50" incLanes="E31_0 E31_1 E31_2 E36_0 E36_1 E38_0 E38_1 E38_2" intLanes="" shape="-9.60,41.85 9.60,41.85 9.75,40.95 9.94,40.58 10.21,40.25 10.56,39.98 10.98,39.76 8.46,33.88 7.85,29.65 1.06,22.86 0.35,23.33 -0.00,23.39 -0.35,23.33 -0.71,23.16 -1.06,22.86 -7.85,29.65 -8.46,33.88 -10.98,39.76 -10.21,40.25 -9.94,40.58 -9.75,40.95 -9.64,41.37">
        <request index="0" response="000000000" foes="001100000"/>
        <request index="1" response="000000000" foes="001100000"/>
        <request index="2" response="110000000" foes="111100000"/>
        <request index="3" response="110000000" foes="111100000"/>
        <request index="4" response="110000000" foes="110000000"/>
        <request index="5" response="110001111" foes="110001111"/>
        <request index="6" response="110001111" foes="110001111"/>
        <request index="7" response="000000000" foes="001111100"/>
        <request index="8" response="000000000" foes="001111100"/>
    </junction>
    <junction id="J23" type="priority" x="12.50" y="12.50" incLanes="E37_0 E37_1 E37_2 E44_0 E44_1" intLanes="" shape="1.99,21.93 12.50,22.31 12.86,20.56 13.30,20.01 13.93,19.68 14.73,19.56 15.72,19.67 16.97,13.39 14.49,12.53 13.62,11.90 13.00,11.14 12.62,10.25 12.50,9.22 2.90,9.22 2.87,12.85 2.80,15.88 2.67,18.30 2.50,20.12 2.27,21.33">
        <request index="0" response="0000" foes="1100"/>
        <request index="1" response="0000" foes="1100"/>
        <request index="2" response="1011" foes="1011"/>
        <request index="3" response="0011" foes="0111"/>
    </junction>
    <junction id="J24" type="priority" x="-12.50" y="12.50" incLanes="E41_0 E41_1 E41_2" intLanes="" shape="-12.50,22.31 -1.99,21.93 -2.50,20.12 -2.67,18.30 -2.80,15.88 -2.87,12.85 -2.90,9.22 -12.50,9.22 -13.00,11.14 -13.62,11.90 -14.49,12.53 -15.60,13.03 -16.97,13.39 -15.72,19.67 -13.93,19.68 -13.30,20.01 -12.86,20.56 -12.59,21.32">
        <request index="0" response="0000" foes="0000"/>
        <request index="1" response="0000" foes="0000"/>
        <request index="2" response="0000" foes="0000"/>
        <request index="3" response="0000" foes="0000"/>
    </junction>
    <junction id="J25" type="priority" x="-12.50" y="-12.50" incLanes="E39_0 E39_1 E39_2 E45_0 E45_1" intLanes="" shape="-12.50,-9.22 -2.90,-9.22 -2.87,-12.85 -2.80,-15.88 -2.67,-18.30 -2.50,-20.12 -2.27,-21.33 -1.99,-21.93 -12.50,-22.31 -12.86,-20.56 -13.30,-20.01 -13.93,-19.68 -14.73,-19.56 -15.72,-19.67 -16.97,-13.39 -14.49,-12.53 -13.62,-11.90 -13.00,-11.14 -12.62,-10.25">
        <request index="0" response="0000" foes="1100"/>
        <request index="1" response="0000" foes="1100"/>
        <request index="2" response="1011" foes="1011"/>
        <request index="3" response="0011" foes="0111"/>
    </junction>
    <junction id="J26" type="priority" x="12.50" y="-12.50" incLanes="E42_0 E42_1 E42_2" intLanes="" shape="2.90,-9.22 12.50,-9.22 13.00,-11.14 13.62,-11.90 14.49,-12.53 15.60,-13.03 16.97,-13.39 15.72,-19.67 13.93,-19.68 13.30,-20.01 12.86,-20.56 12.59,-21.32 12.50,-22.31 1.99,-21.93 2.50,-20.12 2.67,-18.30 2.80,-15.88 2.87,-12.85">
        <request index="0" response="0000" foes="0000"/>
        <request index="1" response="0000" foes="0000"/>
        <request index="2" response="0000" foes="0000"/>
        <request index="3" response="0000" foes="0000"/>
    </junction>
    <junction id="J3" type="traffic_light" x="100.00" y="0.00" incLanes="+E_0 +E_1 +E_2 E16_0 E16_1 E8_0 E8_1 E8_2" intLanes="" shape="92.94,9.60 92.94,-9.60 88.26,-9.84 84.87,-10.52 82.16,-11.56 79.49,-12.89 76.24,-14.45 71.80,-16.15 69.78,-10.07 69.70,-9.60 69.70,9.60 69.78,10.07 71.80,16.15 76.24,14.45 79.49,12.89 82.16,11.56 84.87,10.52 88.26,9.84">
        <request index="0" response="00000000" foes="00000000"/>
        <request index="1" response="00000000" foes="00000000"/>
        <request index="2" response="00000000" foes="00000000"/>
        <request index="3" response="00000000" foes="00000000"/>
        <request index="4" response="11100000" foes="11100000"/>
        <request index="5" response="11000000" foes="11010000"/>
        <request index="6" response="00000000" foes="00110000"/>
        <request index="7" response="00000000" foes="00110000"/>
    </junction>
    <junction id="J4" type="priority" x="0.00" y="100.00" incLanes="+N_0 +N_1 +N_2 -E31_0 -E31_1 -E31_2" intLanes="" shape="-9.60,100.00 9.60,100.00 -9.60,100.00">
        <request index="0" response="0000" foes="0000"/>
        <request index="1" response="0000" foes="0000"/>
        <request index="2" response="0000" foes="0000"/>
        <request index="3" response="0000" foes="0000"/>
    </junction>
    <junction id="J5" type="dead_end" x="0.00" y="200.00" incLanes="-N_0 -N_1 -N_2" intLanes="" shape="0.00,200.00 9.60,200.00 0.00,200.00"/>
    <junction id="J6" type="priority" x="0.00" y="-100.00" incLanes="-E30_0 -E30_1 -E30_2 +S_0 +S_1 +S_2" intLanes="" shape="-9.60,-100.00 9.60,-100.00 -9.60,-100.00">
        <request index="0" response="0000" foes="0000"/>
        <request index="1" response="0000" foes="0000"/>
        <request index="2" response="0000" foes="0000"/>
        <request index="3" response="0000" foes="0000"/>
    </junction>
    <junction id="J7" type="dead_end" x="0.00" y="-200.00" incLanes="-S_0 -S_1 -S_2" intLanes="" shape="0.00,-200.00 -9.60,-200.00 0.00,-200.00"/>

    <connection from="+E" to="E17" fromLane="1" toLane="0" tl="J3" linkIndex="0" dir="R" state="O"/>
    <connection from="+E" to="E17" fromLane="1" toLane="1" tl="J3" linkIndex="1" dir="R" state="O"/>
    <connection from="+E" to="-E8" fromLane="1" toLane="1" tl="J3" linkIndex="2" dir="s" state="O"/>
    <connection from="+E" to="-E8" fromLane="2" toLane="2" tl="J3" linkIndex="3" dir="s" state="O"/>
    <connection from="+N" to="E31" fromLane="1" toLane="1" dir="s" state="M"/>
    <connection from="+N" to="E31" fromLane="2" toLane="2" dir="s" state="M"/>
    <connection from="+S" to="E30" fromLane="1" toLane="1" dir="s" state="M"/>
    <connection from="+S" to="E30" fromLane="2" toLane="2" dir="s" state="M"/>
    <connection from="+W" to="E14" fromLane="1" toLane="0" tl="J1" linkIndex="4" dir="R" state="O"/>
    <connection from="+W" to="E14" fromLane="1" toLane="1" tl="J1" linkIndex="5" dir="R" state="O"/>
    <connection from="+W" to="E8" fromLane="1" toLane="1" tl="J1" linkIndex="6" dir="s" state="O"/>
    <connection from="+W" to="E8" fromLane="2" toLane="2" tl="J1" linkIndex="7" dir="s" state="O"/>
    <connection from="-E30" to="-S" fromLane="1" toLane="1" dir="s" state="M"/>
    <connection from="-E30" to="-S" fromLane="2" toLane="2" dir="s" state="M"/>
    <connection from="-E31" to="-N" fromLane="1" toLane="1" dir="s" state="M"/>
    <connection from="-E31" to="-N" fromLane="2" toLane="2" dir="s" state="M"/>
    <connection from="-E8" to="-W" fromLane="1" toLane="1" tl="J1" linkIndex="2" dir="s" state="O"/>
    <connection from="-E8" to="-W" fromLane="2" toLane="2" tl="J1" linkIndex="3" dir="s" state="O"/>
    <connection from="E14" to="E33" fromLane="0" toLane="0" dir="s" state="M"/>
    <connection from="E14" to="E33" fromLane="1" toLane="1" dir="s" state="M"/>
    <connection from="E14" to="E45" fromLane="1" toLane="0" dir="L" state="M"/>
    <connection from="E14" to="E45" fromLane="1" toLane="1" dir="L" state="M"/>
    <connection from="E16" to="-E" fromLane="0" toLane="1" tl="J3" linkIndex="4" dir="s" state="o"/>
    <connection from="E16" to="-E" fromLane="1" toLane="1" tl="J3" linkIndex="5" dir="s" state="o"/>
    <connection from="E17" to="E36" fromLane="0" toLane="0" dir="s" state="M"/>
    <connection from="E17" to="E36" fromLane="1" toLane="1" dir="s" state="M"/>
    <connection from="E17" to="E44" fromLane="1" toLane="0" dir="L" state="M"/>
    <connection from="E17" to="E44" fromLane="1" toLane="1" dir="L" state="M"/>
    <connection from="E18" to="-W" fromLane="0" toLane="1" tl="J1" linkIndex="0" dir="s" state="o"/>
    <connection from="E18" to="-W" fromLane="1" toLane="1" tl="J1" linkIndex="1" dir="s" state="o"/>
    <connection from="E30" to="E34" fromLane="1" toLane="0" tl="J21" linkIndex="2" dir="r" state="O"/>
    <connection from="E30" to="E34" fromLane="1" toLane="1" tl="J21" linkIndex="3" dir="r" state="O"/>
    <connection from="E30" to="E39" fromLane="1" toLane="1" tl="J21" linkIndex="4" dir="l" state="o"/>
    <connection from="E30" to="E39" fromLane="2" toLane="2" tl="J21" linkIndex="5" dir="l" state="o"/>
    <connection from="E31" to="E35" fromLane="1" toLane="0" tl="J22" linkIndex="0" dir="r" state="O"/>
    <connection from="E31" to="E35" fromLane="1" toLane="1" tl="J22" linkIndex="1" dir="r" state="O"/>
    <connection from="E31" to="E37" fromLane="1" toLane="1" tl="J22" linkIndex="2" dir="l" state="o"/>
    <connection from="E31" to="E37" fromLane="2" toLane="2" tl="J22" linkIndex="3" dir="l" state="o"/>
    <connection from="E33" to="-E30" fromLane="0" toLane="1" tl="J21" linkIndex="6" dir="r" state="o"/>
    <connection from="E33" to="E34" fromLane="0" toLane="0" tl="J21" linkIndex="7" dir="L" state="o"/>
    <connection from="E33" to="E34" fromLane="1" toLane="1" tl="J21" linkIndex="8" dir="L" state="o"/>
    <connection from="E34" to="E16" fromLane="0" toLane="0" tl="J18" linkIndex="0" dir="s" state="O"/>
    <connection from="E34" to="E16" fromLane="1" toLane="1" tl="J18" linkIndex="1" dir="s" state="O"/>
    <connection from="E35" to="E18" fromLane="0" toLane="0" tl="J20" linkIndex="0" dir="s" state="O"/>
    <connection from="E35" to="E18" fromLane="1" toLane="1" tl="J20" linkIndex="1" dir="s" state="O"/>
    <connection from="E36" to="-E31" fromLane="0" toLane="1" tl="J22" linkIndex="4" dir="r" state="o"/>
    <connection from="E36" to="E35" fromLane="0" toLane="0" tl="J22" linkIndex="5" dir="L" state="o"/>
    <connection from="E36" to="E35" fromLane="1" toLane="1" tl="J22" linkIndex="6" dir="L" state="o"/>