<?xml version="1.0" encoding="UTF-8"?>

<!-- generated on 2023-04-09 12:42:56 by Eclipse SUMO netedit Version 1.15.0
<configuration xmlns:xsi="http://www.w3.org/2001/XMLSchema-instance" xsi:noNamespaceSchemaLocation="http://sumo.dlr.de/xsd/netconvertConfiguration.xsd">

    <input>
        <sumo-net-file value="Z:\Users\708891\Desktop\AP research\Simulations\fourWay.net.xml"/>
    </input>

    <output>
        <output-file value="Z:\Users\708891\Desktop\AP research\Simulations\fourWay.net.xml"/>
    </output>

    <processing>
        <geometry.min-radius.fix.railways value="false"/>
        <geometry.max-grade.fix value="false"/>
        <offset.disable-normalization value="true"/>
        <lefthand value="0"/>
    </processing>

    <junctions>
        <no-internal-links value="true"/>
        <no-turnarounds value="true"/>
        <junctions.corner-detail value="5"/>
        <junctions.limit-turn-speed value="5.50"/>
        <rectangular-lane-cut value="0"/>
    </junctions>

    <pedestrian>
        <walkingareas value="0"/>
    </pedestrian>

</configuration>
-->

<net version="1.9" junctionCornerDetail="5" limitTurnSpeed="5.50" xmlns:xsi="http://www.w3.org/2001/XMLSchema-instance" xsi:noNamespaceSchemaLocation="http://sumo.dlr.de/xsd/net_file.xsd">

    <location netOffset="0.00,0.00" convBoundary="-200.00,-200.00,200.00,200.00" origBoundary="-10000000000.00,-10000000000.00,10000000000.00,10000000000.00" projParameter="!"/>

    <edge id="+E" from="J2" to="J3" priority="-1">
        <lane id="+E_0" index="0" allow="pedestrian" speed="13.89" length="100.00" shape="200.00,8.00 100.00,8.00"/>
        <lane id="+E_1" index="1" disallow="pedestrian" speed="13.89" length="100.00" shape="200.00,4.80 100.00,4.80"/>
        <lane id="+E_2" index="2" disallow="pedestrian" speed="13.89" length="100.00" shape="200.00,1.60 100.00,1.60"/>
    </edge>
    <edge id="+N" from="J5" to="J4" priority="-1">
        <lane id="+N_0" index="0" allow="pedestrian" speed="13.89" length="100.00" shape="-8.00,200.00 -8.00,100.00"/>
        <lane id="+N_1" index="1" disallow="pedestrian" speed="13.89" length="100.00" shape="-4.80,200.00 -4.80,100.00"/>
        <lane id="+N_2" index="2" disallow="pedestrian" speed="13.89" length="100.00" shape="-1.60,200.00 -1.60,100.00"/>
    </edge>
    <edge id="+S" from="J7" to="J6" priority="-1">
        <lane id="+S_0" index="0" allow="pedestrian" speed="13.89" length="100.00" shape="8.00,-200.00 8.00,-100.00"/>
        <lane id="+S_1" index="1" disallow="pedestrian" speed="13.89" length="100.00" shape="4.80,-200.00 4.80,-100.00"/>
        <lane id="+S_2" index="2" disallow="pedestrian" speed="13.89" length="100.00" shape="1.60,-200.00 1.60,-100.00"/>
    </edge>
    <edge id="+W" from="J0" to="J1" priority="-1">
        <lane id="+W_0" index="0" allow="pedestrian" speed="13.89" length="100.00" shape="-200.00,-8.00 -100.00,-8.00"/>
        <lane id="+W_1" index="1" disallow="pedestrian" speed="13.89" length="100.00" shape="-200.00,-4.80 -100.00,-4.80"/>
        <lane id="+W_2" index="2" disallow="pedestrian" speed="13.89" length="100.00" shape="-200.00,-1.60 -100.00,-1.60"/>
    </edge>
    <edge id="-E" from="J3" to="J2" priority="-1">
        <lane id="-E_0" index="0" allow="pedestrian" speed="13.89" length="100.00" shape="100.00,-8.00 200.00,-8.00"/>
        <lane id="-E_1" index="1" disallow="pedestrian" speed="13.89" length="100.00" shape="100.00,-4.80 200.00,-4.80"/>
        <lane id="-E_2" index="2" disallow="pedestrian" speed="13.89" length="100.00" shape="100.00,-1.60 200.00,-1.60"/>
    </edge>
    <edge id="-E0" from="J8" to="J1" priority="-1">
        <lane id="-E0_0" index="0" allow="pedestrian" speed="13.89" length="100.00" shape="-11.10,8.00 -100.00,8.00"/>
        <lane id="-E0_1" index="1" disallow="pedestrian" speed="13.89" length="100.00" shape="-11.10,4.80 -100.00,4.80"/>
        <lane id="-E0_2" index="2" disallow="pedestrian" speed="13.89" length="100.00" shape="-11.10,1.60 -100.00,1.60"/>
    </edge>
    <edge id="-E1" from="J4" to="J8" priority="-1">
        <lane id="-E1_0" index="0" allow="pedestrian" speed="13.89" length="100.00" shape="-8.00,100.00 -8.00,11.10"/>
        <lane id="-E1_1" index="1" disallow="pedestrian" speed="13.89" length="100.00" shape="-4.80,100.00 -4.80,11.10"/>
        <lane id="-E1_2" index="2" disallow="pedestrian" speed="13.89" length="100.00" shape="-1.60,100.00 -1.60,11.10"/>
    </edge>
    <edge id="-E2" from="J3" to="J8" priority="-1">
        <lane id="-E2_0" index="0" allow="pedestrian" speed="13.89" length="100.00" shape="100.00,8.00 11.10,8.00"/>
        <lane id="-E2_1" index="1" disallow="pedestrian" speed="13.89" length="100.00" shape="100.00,4.80 11.10,4.80"/>
        <lane id="-E2_2" index="2" disallow="pedestrian" speed="13.89" length="100.00" shape="100.00,1.60 11.10,1.60"/>
    </edge>
    <edge id="-E3" from="J6" to="J8" priority="-1">
        <lane id="-E3_0" index="0" allow="pedestrian" speed="13.89" length="100.00" shape="8.00,-100.00 8.00,-11.10"/>
        <lane id="-E3_1" index="1" disallow="pedestrian" speed="13.89" length="100.00" shape="4.80,-100.00 4.80,-11.10"/>
        <lane id="-E3_2" index="2" disallow="pedestrian" speed="13.89" length="100.00" shape="1.60,-100.00 1.60,-11.10"/>
    </edge>
    <edge id="-N" from="J4" to="J5" priority="-1">
        <lane id="-N_0" index="0" allow="pedestrian" speed="13.89" length="100.00" shape="8.00,100.00 8.00,200.00"/>
        <lane id="-N_1" index="1" disallow="pedestrian" speed="13.89" length="100.00" shape="4.80,100.00 4.80,200.00"/>
        <lane id="-N_2" index="2" disallow="pedestrian" speed="13.89" length="100.00" shape="1.60,100.00 1.60,200.00"/>
    </edge>
    <edge id="-S" from="J6" to="J7" priority="-1">
        <lane id="-S_0" index="0" allow="pedestrian" speed="13.89" length="100.00" shape="-8.00,-100.00 -8.00,-200.00"/>
        <lane id="-S_1" index="1" disallow="pedestrian" speed="13.89" length="100.00" shape="-4.80,-100.00 -4.80,-200.00"/>
        <lane id="-S_2" index="2" disallow="pedestrian" speed="13.89" length="100.00" shape="-1.60,-100.00 -1.60,-200.00"/>
    </edge>
    <edge id="-W" from="J1" to="J0" priority="-1">
        <lane id="-W_0" index="0" allow="pedestrian" speed="13.89" length="100.00" shape="-100.00,8.00 -200.00,8.00"/>
        <lane id="-W_1" index="1" disallow="pedestrian" speed="13.89" length="100.00" shape="-100.00,4.80 -200.00,4.80"/>
        <lane id="-W_2" index="2" disallow="pedestrian" speed="13.89" length="100.00" shape="-100.00,1.60 -200.00,1.60"/>
    </edge>
    <edge id="E0" from="J1" to="J8" priority="-1">
        <lane id="E0_0" index="0" allow="pedestrian" speed="13.89" length="100.00" shape="-100.00,-8.00 -11.10,-8.00"/>
        <lane id="E0_1" index="1" disallow="pedestrian" speed="13.89" length="100.00" shape="-100.00,-4.80 -11.10,-4.80"/>
        <lane id="E0_2" index="2" disallow="pedestrian" speed="13.89" length="100.00" shape="-100.00,-1.60 -11.10,-1.60"/>
    </edge>
    <edge id="E1" from="J8" to="J4" priority="-1">
        <lane id="E1_0" index="0" allow="pedestrian" speed="13.89" length="100.00" shape="8.00,11.10 8.00,100.00"/>
        <lane id="E1_1" index="1" disallow="pedestrian" speed="13.89" length="100.00" shape="4.80,11.10 4.80,100.00"/>
        <lane id="E1_2" index="2" disallow="pedestrian" speed="13.89" length="100.00" shape="1.60,11.10 1.60,100.00"/>
    </edge>
    <edge id="E2" from="J8" to="J3" priority="-1">
        <lane id="E2_0" index="0" allow="pedestrian" speed="13.89" length="100.00" shape="11.10,-8.00 100.00,-8.00"/>
        <lane id="E2_1" index="1" disallow="pedestrian" speed="13.89" length="100.00" shape="11.10,-4.80 100.00,-4.80"/>
        <lane id="E2_2" index="2" disallow="pedestrian" speed="13.89" length="100.00" shape="11.10,-1.60 100.00,-1.60"/>
    </edge>
    <edge id="E3" from="J8" to="J6" priority="-1">
        <lane id="E3_0" index="0" allow="pedestrian" speed="13.89" length="100.00" shape="-8.00,-11.10 -8.00,-100.00"/>
        <lane id="E3_1" index="1" disallow="pedestrian" speed="13.89" length="100.00" shape="-4.80,-11.10 -4.80,-100.00"/>
        <lane id="E3_2" index="2" disallow="pedestrian" speed="13.89" length="100.00" shape="-1.60,-11.10 -1.60,-100.00"/>
    </edge>

    <tlLogic id="J8" type="static" programID="0" offset="0">
        <phase duration="42" state="GGggrrGGggrr"/>
        <phase duration="3"  state="gyygrrgyygrr"/>
        <phase duration="42" state="grrGGggrrGGg"/>
        <phase duration="3"  state="grrgyygrrgyy"/>
    </tlLogic>

    <junction id="J0" type="dead_end" x="-200.00" y="0.00" incLanes="-W_0 -W_1 -W_2" intLanes="" shape="-200.00,0.00 -200.00,9.60 -200.00,0.00"/>
    <junction id="J1" type="priority" x="-100.00" y="0.00" incLanes="-E0_0 -E0_1 -E0_2 +W_0 +W_1 +W_2" intLanes="" shape="-100.00,9.60 -100.00,-9.60 -100.00,9.60">
        <request index="0" response="0000" foes="0000"/>
        <request index="1" response="0000" foes="0000"/>
        <request index="2" response="0000" foes="0000"/>
        <request index="3" response="0000" foes="0000"/>
    </junction>
    <junction id="J2" type="dead_end" x="200.00" y="0.00" incLanes="-E_0 -E_1 -E_2" intLanes="" shape="200.00,0.00 200.00,-9.60 200.00,0.00"/>
    <junction id="J3" type="priority" x="100.00" y="0.00" incLanes="+E_0 +E_1 +E_2 E2_0 E2_1 E2_2" intLanes="" shape="100.00,9.60 100.00,-9.60 100.00,9.60">
        <request index="0" response="0000" foes="0000"/>
        <request index="1" response="0000" foes="0000"/>
        <request index="2" response="0000" foes="0000"/>
        <request index="3" response="0000" foes="0000"/>
    </junction>
    <junction id="J4" type="priority" x="0.00" y="100.00" incLanes="+N_0 +N_1 +N_2 E1_0 E1_1 E1_2" intLanes="" shape="-9.60,100.00 9.60,100.00 -9.60,100.00">
        <request index="0" response="00000" foes="10000"/>
        <request index="1" response="00000" foes="10000"/>
        <request index="2" response="00000" foes="00000"/>
        <request index="3" response="00000" foes="00000"/>
        <request index="4" response="00011" foes="00011"/>
    </junction>
    <junction id="J5" type="dead_end" x="0.00" y="200.00" incLanes="-N_0 -N_1 -N_2" intLanes="" shape="0.00,200.00 9.60,200.00 0.00,200.00"/>
    <junction id="J6" type="priority" x="0.00" y="-100.00" incLanes="E3_0 E3_1 E3_2 +S_0 +S_1 +S_2" intLanes="" shape="-9.60,-100.00 9.60,-100.00 -9.60,-100.00">
        <request index="0" response="0000" foes="0000"/>
        <request index="1" response="0000" foes="0000"/>
        <request index="2" response="0000" foes="0000"/>
        <request index="3" response="0000" foes="0000"/>
    </junction>
    <junction id="J7" type="dead_end" x="0.00" y="-200.00" incLanes="-S_0 -S_1 -S_2" intLanes="" shape="0.00,-200.00 -9.60,-200.00 0.00,-200.00"/>
    <junction id="J8" type="traffic_light" x="0.00" y="0.00" incLanes="-E1_0 -E1_1 -E1_2 -E2_0 -E2_1 -E2_2 -E3_0 -E3_1 -E3_2 E0_0 E0_1 E0_2" intLanes="" shape="-9.60,11.10 9.60,11.10 9.77,10.27 9.97,9.97 10.27,9.77 10.64,9.64 11.10,9.60 11.10,-9.60 10.27,-9.77 9.97,-9.97 9.77,-10.27 9.64,-10.64 9.60,-11.10 -9.60,-11.10 -9.77,-10.27 -9.97,-9.97 -10.27,-9.77 -10.64,-9.64 -11.10,-9.60 -11.10,9.60 -10.27,9.77 -9.97,9.97 -9.77,10.27 -9.64,10.64">
        <request index="0"  response="000000000000" foes="000000000000"/>
        <request index="1"  response="000000000000" foes="110100110000"/>
        <request index="2"  response="000010000000" foes="110010110000"/>
        <request index="3"  response="000000000000" foes="000000000000"/>
        <request index="4"  response="000110000110" foes="100110000110"/>
        <request index="5"  response="010110000110" foes="010110000110"/>
        <request index="6"  response="000000000000" foes="000000000000"/>
        <request index="7"  response="000000000000" foes="110000110100"/>
        <request index="8"  response="000000000010" foes="110000110010"/>
        <request index="9"  response="000000000000" foes="000000000000"/>
        <request index="10" response="000110000110" foes="000110100110"/>
        <request index="11" response="000110010110" foes="000110010110"/>
    </junction>

    <connection from="+E" to="-E2" fromLane="1" toLane="1" dir="s" state="M"/>
    <connection from="+E" to="-E2" fromLane="2" toLane="2" dir="s" state="M"/>
    <connection from="+N" to="-E1" fromLane="1" toLane="1" keepClear="0" dir="s" state="M"/>
    <connection from="+N" to="-E1" fromLane="2" toLane="2" keepClear="0" dir="s" state="M"/>
    <connection from="+S" to="-E3" fromLane="1" toLane="1" dir="s" state="M"/>
    <connection from="+S" to="-E3" fromLane="2" toLane="2" dir="s" state="M"/>
    <connection from="+W" to="E0" fromLane="1" toLane="1" dir="s" state="M"/>
    <connection from="+W" to="E0" fromLane="2" toLane="2" dir="s" state="M"/>
    <connection from="-E0" to="-W" fromLane="1" toLane="1" dir="s" state="M"/>
    <connection from="-E0" to="-W" fromLane="2" toLane="2" dir="s" state="M"/>
    <connection from="-E1" to="-E0" fromLane="1" toLane="1" tl="J8" linkIndex="0" dir="r" state="O"/>
    <connection from="-E1" to="E3" fromLane="2" toLane="2" tl="J8" linkIndex="1" dir="s" state="O"/>
    <connection from="-E1" to="E2" fromLane="2" toLane="2" tl="J8" linkIndex="2" dir="l" state="o"/>
    <connection from="-E2" to="E1" fromLane="1" toLane="1" tl="J8" linkIndex="3" dir="r" state="O"/>
    <connection from="-E2" to="-E0" fromLane="2" toLane="2" tl="J8" linkIndex="4" dir="s" state="o"/>
    <connection from="-E2" to="E3" fromLane="2" toLane="2" tl="J8" linkIndex="5" dir="l" state="o"/>
    <connection from="-E3" to="E2" fromLane="1" toLane="1" tl="J8" linkIndex="6" dir="r" state="O"/>
    <connection from="-E3" to="E1" fromLane="2" toLane="2" tl="J8" linkIndex="7" dir="s" state="O"/>
    <connection from="-E3" to="-E0" fromLane="2" toLane="2" tl="J8" linkIndex="8" dir="l" state="o"/>
    <connection from="E0" to="E3" fromLane="1" toLane="1" tl="J8" linkIndex="9" dir="r" state="O"/>
    <connection from="E0" to="E2" fromLane="2" toLane="2" tl="J8" linkIndex="10" dir="s" state="o"/>
    <connection from="E0" to="E1" fromLane="2" toLane="2" tl="J8" linkIndex="11" dir="l" state="o"/>
    <connection from="E1" to="-N" fromLane="1" toLane="1" keepClear="0" dir="s" state="M"/>
    <connection from="E1" to="-N" fromLane="2" toLane="2" keepClear="0" dir="s" state="M"/>
    <connection from="E1" to="-E1" fromLane="2" toLane="1" dir="t" state="m"/>
    <connection from="E2" to="-E" fromLane="1" toLane="1" dir="s" state="M"/>
    <connection from="E2" to="-E" fromLane="2" toLane="2" dir="s" state="M"/>
    <connection from="E3" to="-S" fromLane="1" toLane="1" dir="s" state="M"/>
    <connection from="E3" to="-S" fromLane="2" toLane="2" dir="s" state="M"/>

</net>
