<?xml version="1.0" encoding="UTF-8"?>

<!-- generated on 2023-04-17 16:02:26 by Eclipse SUMO netedit Version 1.15.0
<configuration xmlns:xsi="http://www.w3.org/2001/XMLSchema-instance" xsi:noNamespaceSchemaLocation="http://sumo.dlr.de/xsd/netconvertConfiguration.xsd">

    <input>
        <sumo-net-file value="Simulations\fourWaySlip.net.xml"/>
    </input>

    <output>
        <output-file value="Simulations\fourWaySlip.net.xml"/>
    </output>

    <processing>
        <geometry.min-radius.fix.railways value="false"/>
        <geometry.max-grade.fix value="false"/>
        <offset.disable-normalization value="true"/>
        <lefthand value="0"/>
    </processing>

    <junctions>
        <no-internal-links value="true"/>
        <no-turnarounds value="true"/>
        <junctions.corner-detail value="5"/>
        <junctions.limit-turn-speed value="5.50"/>
        <rectangular-lane-cut value="0"/>
    </junctions>

    <pedestrian>
        <walkingareas value="0"/>
    </pedestrian>

</configuration>
-->

<net version="1.9" junctionCornerDetail="5" limitTurnSpeed="5.50" xmlns:xsi="http://www.w3.org/2001/XMLSchema-instance" xsi:noNamespaceSchemaLocation="http://sumo.dlr.de/xsd/net_file.xsd">

    <location netOffset="0.00,0.00" convBoundary="-200.00,-200.00,200.00,200.00" origBoundary="-10000000000.00,-10000000000.00,10000000000.00,10000000000.00" projParameter="!"/>

    <edge id="+E" from="J2" to="J3" priority="-1">
        <lane id="+E_0" index="0" allow="pedestrian" speed="13.89" length="100.00" shape="200.00,8.00 100.00,8.00"/>
        <lane id="+E_1" index="1" disallow="pedestrian" speed="13.89" length="100.00" shape="200.00,4.80 100.00,4.80"/>
        <lane id="+E_2" index="2" disallow="pedestrian" speed="13.89" length="100.00" shape="200.00,1.60 100.00,1.60"/>
    </edge>
    <edge id="+N" from="J5" to="J4" priority="-1">
        <lane id="+N_0" index="0" allow="pedestrian" speed="13.89" length="100.00" shape="-8.00,200.00 -8.00,100.00"/>
        <lane id="+N_1" index="1" disallow="pedestrian" speed="13.89" length="100.00" shape="-4.80,200.00 -4.80,100.00"/>
        <lane id="+N_2" index="2" disallow="pedestrian" speed="13.89" length="100.00" shape="-1.60,200.00 -1.60,100.00"/>
    </edge>
    <edge id="+S" from="J7" to="J6" priority="-1">
        <lane id="+S_0" index="0" allow="pedestrian" speed="13.89" length="100.00" shape="8.00,-200.00 8.00,-100.00"/>
        <lane id="+S_1" index="1" disallow="pedestrian" speed="13.89" length="100.00" shape="4.80,-200.00 4.80,-100.00"/>
        <lane id="+S_2" index="2" disallow="pedestrian" speed="13.89" length="100.00" shape="1.60,-200.00 1.60,-100.00"/>
    </edge>
    <edge id="+W" from="J0" to="J1" priority="-1">
        <lane id="+W_0" index="0" allow="pedestrian" speed="13.89" length="100.00" shape="-200.00,-8.00 -100.00,-8.00"/>
        <lane id="+W_1" index="1" disallow="pedestrian" speed="13.89" length="100.00" shape="-200.00,-4.80 -100.00,-4.80"/>
        <lane id="+W_2" index="2" disallow="pedestrian" speed="13.89" length="100.00" shape="-200.00,-1.60 -100.00,-1.60"/>
    </edge>
    <edge id="-E" from="J3" to="J2" priority="-1">
        <lane id="-E_0" index="0" allow="pedestrian" speed="13.89" length="100.00" shape="100.00,-8.00 200.00,-8.00"/>
        <lane id="-E_1" index="1" disallow="pedestrian" speed="13.89" length="100.00" shape="100.00,-4.80 200.00,-4.80"/>
        <lane id="-E_2" index="2" disallow="pedestrian" speed="13.89" length="100.00" shape="100.00,-1.60 200.00,-1.60"/>
    </edge>
    <edge id="-E0" from="J8" to="J1" priority="-1">
        <lane id="-E0_0" index="0" allow="pedestrian" speed="13.89" length="68.75" shape="-32.20,8.00 -100.00,8.00"/>
        <lane id="-E0_1" index="1" disallow="pedestrian" speed="13.89" length="68.75" shape="-32.20,4.80 -100.00,4.80"/>
        <lane id="-E0_2" index="2" disallow="pedestrian" speed="13.89" length="68.75" shape="-32.20,1.60 -100.00,1.60"/>
    </edge>
    <edge id="-E1" from="J9" to="J8" priority="-1">
        <lane id="-E1_0" index="0" allow="pedestrian" speed="13.89" length="31.25" shape="-11.10,8.00 -20.15,8.00"/>
        <lane id="-E1_1" index="1" disallow="pedestrian" speed="13.89" length="31.25" shape="-11.10,4.80 -20.15,4.80"/>
        <lane id="-E1_2" index="2" disallow="pedestrian" speed="13.89" length="31.25" shape="-11.10,1.60 -20.15,1.60"/>
    </edge>
    <edge id="-E2" from="J10" to="J9" priority="-1">
        <lane id="-E2_0" index="0" allow="pedestrian" speed="13.89" length="31.25" shape="20.15,8.00 11.10,8.00"/>
        <lane id="-E2_1" index="1" disallow="pedestrian" speed="13.89" length="31.25" shape="20.15,4.80 11.10,4.80"/>
        <lane id="-E2_2" index="2" disallow="pedestrian" speed="13.89" length="31.25" shape="20.15,1.60 11.10,1.60"/>
    </edge>
    <edge id="-E3" from="J3" to="J10" priority="-1">
        <lane id="-E3_0" index="0" allow="pedestrian" speed="13.89" length="68.75" shape="100.00,8.00 32.20,8.00"/>
        <lane id="-E3_1" index="1" disallow="pedestrian" speed="13.89" length="68.75" shape="100.00,4.80 32.20,4.80"/>
        <lane id="-E3_2" index="2" disallow="pedestrian" speed="13.89" length="68.75" shape="100.00,1.60 32.20,1.60"/>
    </edge>
    <edge id="-E4" from="J11" to="J4" priority="-1">
        <lane id="-E4_0" index="0" allow="pedestrian" speed="13.89" length="68.75" shape="8.00,32.20 8.00,100.00"/>
        <lane id="-E4_1" index="1" disallow="pedestrian" speed="13.89" length="68.75" shape="4.80,32.20 4.80,100.00"/>
        <lane id="-E4_2" index="2" disallow="pedestrian" speed="13.89" length="68.75" shape="1.60,32.20 1.60,100.00"/>
    </edge>
    <edge id="-E5" from="J9" to="J11" priority="-1">
        <lane id="-E5_0" index="0" allow="pedestrian" speed="13.89" length="31.25" shape="8.00,11.10 8.00,20.15"/>
        <lane id="-E5_1" index="1" disallow="pedestrian" speed="13.89" length="31.25" shape="4.80,11.10 4.80,20.15"/>
        <lane id="-E5_2" index="2" disallow="pedestrian" speed="13.89" length="31.25" shape="1.60,11.10 1.60,20.15"/>
    </edge>
    <edge id="-E8" from="J12" to="J6" priority="-1">
        <lane id="-E8_0" index="0" allow="pedestrian" speed="13.89" length="68.75" shape="-8.00,-32.20 -8.00,-100.00"/>
        <lane id="-E8_1" index="1" disallow="pedestrian" speed="13.89" length="68.75" shape="-4.80,-32.20 -4.80,-100.00"/>
        <lane id="-E8_2" index="2" disallow="pedestrian" speed="13.89" length="68.75" shape="-1.60,-32.20 -1.60,-100.00"/>
    </edge>
    <edge id="-E9" from="J9" to="J12" priority="-1">
        <lane id="-E9_0" index="0" allow="pedestrian" speed="13.89" length="31.25" shape="-8.00,-11.10 -8.00,-20.15"/>
        <lane id="-E9_1" index="1" disallow="pedestrian" speed="13.89" length="31.25" shape="-4.80,-11.10 -4.80,-20.15"/>
        <lane id="-E9_2" index="2" disallow="pedestrian" speed="13.89" length="31.25" shape="-1.60,-11.10 -1.60,-20.15"/>
    </edge>
    <edge id="-N" from="J4" to="J5" priority="-1">
        <lane id="-N_0" index="0" allow="pedestrian" speed="13.89" length="100.00" shape="8.00,100.00 8.00,200.00"/>
        <lane id="-N_1" index="1" disallow="pedestrian" speed="13.89" length="100.00" shape="4.80,100.00 4.80,200.00"/>
        <lane id="-N_2" index="2" disallow="pedestrian" speed="13.89" length="100.00" shape="1.60,100.00 1.60,200.00"/>
    </edge>
    <edge id="-S" from="J6" to="J7" priority="-1">
        <lane id="-S_0" index="0" allow="pedestrian" speed="13.89" length="100.00" shape="-8.00,-100.00 -8.00,-200.00"/>
        <lane id="-S_1" index="1" disallow="pedestrian" speed="13.89" length="100.00" shape="-4.80,-100.00 -4.80,-200.00"/>
        <lane id="-S_2" index="2" disallow="pedestrian" speed="13.89" length="100.00" shape="-1.60,-100.00 -1.60,-200.00"/>
    </edge>
    <edge id="-W" from="J1" to="J0" priority="-1">
        <lane id="-W_0" index="0" allow="pedestrian" speed="13.89" length="100.00" shape="-100.00,8.00 -200.00,8.00"/>
        <lane id="-W_1" index="1" disallow="pedestrian" speed="13.89" length="100.00" shape="-100.00,4.80 -200.00,4.80"/>
        <lane id="-W_2" index="2" disallow="pedestrian" speed="13.89" length="100.00" shape="-100.00,1.60 -200.00,1.60"/>
    </edge>
    <edge id="E0" from="J1" to="J8" priority="-1">
        <lane id="E0_0" index="0" allow="pedestrian" speed="13.89" length="68.75" shape="-100.00,-8.00 -32.20,-8.00"/>
        <lane id="E0_1" index="1" disallow="pedestrian" speed="13.89" length="68.75" shape="-100.00,-4.80 -32.20,-4.80"/>
        <lane id="E0_2" index="2" disallow="pedestrian" speed="13.89" length="68.75" shape="-100.00,-1.60 -32.20,-1.60"/>
    </edge>
    <edge id="E1" from="J8" to="J9" priority="-1">
        <lane id="E1_0" index="0" allow="pedestrian" speed="13.89" length="31.25" shape="-20.15,-8.00 -11.10,-8.00"/>
        <lane id="E1_1" index="1" disallow="pedestrian" speed="13.89" length="31.25" shape="-20.15,-4.80 -11.10,-4.80"/>
        <lane id="E1_2" index="2" disallow="pedestrian" speed="13.89" length="31.25" shape="-20.15,-1.60 -11.10,-1.60"/>
    </edge>
    <edge id="E10" from="J8" to="J12" priority="-1">
        <lane id="E10_0" index="0" disallow="pedestrian" speed="13.89" length="44.19" shape="-23.98,-14.05 -14.05,-23.98"/>
        <lane id="E10_1" index="1" disallow="pedestrian" speed="13.89" length="44.19" shape="-21.72,-11.79 -11.79,-21.72"/>
    </edge>
    <edge id="E11" from="J12" to="J10" priority="-1">
        <lane id="E11_0" index="0" disallow="pedestrian" speed="13.89" length="44.19" shape="14.05,-23.98 23.98,-14.05"/>
        <lane id="E11_1" index="1" disallow="pedestrian" speed="13.89" length="44.19" shape="11.79,-21.72 21.72,-11.79"/>
    </edge>
    <edge id="E12" from="J10" to="J11" priority="-1">
        <lane id="E12_0" index="0" disallow="pedestrian" speed="13.89" length="44.19" shape="23.98,14.05 14.05,23.98"/>
        <lane id="E12_1" index="1" disallow="pedestrian" speed="13.89" length="44.19" shape="21.72,11.79 11.79,21.72"/>
    </edge>
    <edge id="E13" from="J11" to="J8" priority="-1">
        <lane id="E13_0" index="0" disallow="pedestrian" speed="13.89" length="44.19" shape="-14.05,23.98 -23.98,14.05"/>
        <lane id="E13_1" index="1" disallow="pedestrian" speed="13.89" length="44.19" shape="-11.79,21.72 -21.72,11.79"/>
    </edge>
    <edge id="E2" from="J9" to="J10" priority="-1">
        <lane id="E2_0" index="0" allow="pedestrian" speed="13.89" length="31.25" shape="11.10,-8.00 20.15,-8.00"/>
        <lane id="E2_1" index="1" disallow="pedestrian" speed="13.89" length="31.25" shape="11.10,-4.80 20.15,-4.80"/>
        <lane id="E2_2" index="2" disallow="pedestrian" speed="13.89" length="31.25" shape="11.10,-1.60 20.15,-1.60"/>
    </edge>
    <edge id="E3" from="J10" to="J3" priority="-1">
        <lane id="E3_0" index="0" allow="pedestrian" speed="13.89" length="68.75" shape="32.20,-8.00 100.00,-8.00"/>
        <lane id="E3_1" index="1" disallow="pedestrian" speed="13.89" length="68.75" shape="32.20,-4.80 100.00,-4.80"/>
        <lane id="E3_2" index="2" disallow="pedestrian" speed="13.89" length="68.75" shape="32.20,-1.60 100.00,-1.60"/>
    </edge>
    <edge id="E4" from="J4" to="J11" priority="-1">
        <lane id="E4_0" index="0" allow="pedestrian" speed="13.89" length="68.75" shape="-8.00,100.00 -8.00,32.20"/>
        <lane id="E4_1" index="1" disallow="pedestrian" speed="13.89" length="68.75" shape="-4.80,100.00 -4.80,32.20"/>
        <lane id="E4_2" index="2" disallow="pedestrian" speed="13.89" length="68.75" shape="-1.60,100.00 -1.60,32.20"/>
    </edge>
    <edge id="E5" from="J11" to="J9" priority="-1">
        <lane id="E5_0" index="0" allow="pedestrian" speed="13.89" length="31.25" shape="-8.00,20.15 -8.00,11.10"/>
        <lane id="E5_1" index="1" disallow="pedestrian" speed="13.89" length="31.25" shape="-4.80,20.15 -4.80,11.10"/>
        <lane id="E5_2" index="2" disallow="pedestrian" speed="13.89" length="31.25" shape="-1.60,20.15 -1.60,11.10"/>
    </edge>
    <edge id="E8" from="J6" to="J12" priority="-1">
        <lane id="E8_0" index="0" allow="pedestrian" speed="13.89" length="68.75" shape="8.00,-100.00 8.00,-32.20"/>
        <lane id="E8_1" index="1" disallow="pedestrian" speed="13.89" length="68.75" shape="4.80,-100.00 4.80,-32.20"/>
        <lane id="E8_2" index="2" disallow="pedestrian" speed="13.89" length="68.75" shape="1.60,-100.00 1.60,-32.20"/>
    </edge>
    <edge id="E9" from="J12" to="J9" priority="-1">
        <lane id="E9_0" index="0" allow="pedestrian" speed="13.89" length="31.25" shape="8.00,-20.15 8.00,-11.10"/>
        <lane id="E9_1" index="1" disallow="pedestrian" speed="13.89" length="31.25" shape="4.80,-20.15 4.80,-11.10"/>
        <lane id="E9_2" index="2" disallow="pedestrian" speed="13.89" length="31.25" shape="1.60,-20.15 1.60,-11.10"/>
    </edge>

    <tlLogic id="J10" type="static" programID="0" offset="0">
        <phase duration="1"  state="GGGGggGG"/>
        <phase duration="1"  state="GGGGGGgG"/>
    </tlLogic>
    <tlLogic id="J11" type="static" programID="0" offset="0">
        <phase duration="1"  state="GGGGggGG"/>
        <phase duration="1"  state="GGGGGGgG"/>
    </tlLogic>
    <tlLogic id="J12" type="static" programID="0" offset="0">
        <phase duration="1"  state="GGGGGGgg"/>
        <phase duration="1"  state="gGGGGGGG"/>
    </tlLogic>
    <tlLogic id="J8" type="static" programID="0" offset="0">
        <phase duration="1"  state="ggGGGGGG"/>
        <phase duration="1"  state="GGgGGGGG"/>
    </tlLogic>
    <tlLogic id="J9" type="static" programID="0" offset="0">
        <phase duration="42" state="GGgrrrGGgrrr"/>
        <phase duration="3"  state="yyyrrryyyrrr"/>
        <phase duration="42" state="rrrGGgrrrGGg"/>
        <phase duration="3"  state="rrryyyrrryyy"/>
    </tlLogic>

    <junction id="J0" type="dead_end" x="-200.00" y="0.00" incLanes="-W_0 -W_1 -W_2" intLanes="" shape="-200.00,0.00 -200.00,9.60 -200.00,0.00"/>
    <junction id="J1" type="priority" x="-100.00" y="0.00" incLanes="-E0_0 -E0_1 -E0_2 +W_0 +W_1 +W_2" intLanes="" shape="-100.00,9.60 -100.00,-9.60 -100.00,9.60">
        <request index="0" response="0000" foes="0000"/>
        <request index="1" response="0000" foes="0000"/>
        <request index="2" response="0000" foes="0000"/>
        <request index="3" response="0000" foes="0000"/>
    </junction>
    <junction id="J10" type="traffic_light" x="31.25" y="0.00" incLanes="-E3_0 -E3_1 -E3_2 E11_0 E11_1 E2_0 E2_1 E2_2" intLanes="" shape="32.20,9.60 32.20,-9.60 30.75,-10.22 29.68,-11.00 28.38,-12.08 26.86,-13.48 25.11,-15.19 20.59,-10.66 21.01,-10.07 21.01,-9.87 20.87,-9.72 20.58,-9.63 20.15,-9.60 20.15,9.60 20.87,9.72 21.01,9.87 21.01,10.07 20.87,10.34 20.59,10.66 25.11,15.19 26.43,13.66 27.37,12.32 28.16,11.20 29.07,10.34 30.33,9.79">
        <request index="0" response="00000000" foes="00000000"/>
        <request index="1" response="00000000" foes="00000000"/>
        <request index="2" response="00000000" foes="00000000"/>
        <request index="3" response="00000000" foes="00000000"/>
        <request index="4" response="11000000" foes="11100000"/>
        <request index="5" response="11010000" foes="11010000"/>
        <request index="6" response="00000000" foes="00110000"/>
        <request index="7" response="00000000" foes="00110000"/>
    </junction>
    <junction id="J11" type="traffic_light" x="0.00" y="31.25" incLanes="E4_0 E4_1 E4_2 E12_0 E12_1 -E5_0 -E5_1 -E5_2" intLanes="" shape="-9.60,32.20 9.60,32.20 10.22,30.75 11.00,29.68 12.08,28.38 13.48,26.86 15.19,25.11 10.66,20.59 10.07,21.01 9.87,21.01 9.72,20.87 9.63,20.58 9.60,20.15 -9.60,20.15 -9.72,20.87 -9.87,21.01 -10.07,21.01 -10.34,20.87 -10.66,20.59 -15.19,25.11 -13.66,26.43 -12.32,27.37 -11.20,28.16 -10.34,29.07 -9.79,30.33">
        <request index="0" response="00000000" foes="00000000"/>
        <request index="1" response="00000000" foes="00000000"/>
        <request index="2" response="00000000" foes="00000000"/>
        <request index="3" response="00000000" foes="00000000"/>
        <request index="4" response="11000000" foes="11100000"/>
        <request index="5" response="11010000" foes="11010000"/>
        <request index="6" response="00000000" foes="00110000"/>
        <request index="7" response="00000000" foes="00110000"/>
    </junction>
    <junction id="J12" type="traffic_light" x="0.00" y="-31.25" incLanes="-E9_0 -E9_1 -E9_2 E8_0 E8_1 E8_2 E10_0 E10_1" intLanes="" shape="-9.60,-20.15 9.60,-20.15 9.72,-20.87 9.87,-21.01 10.07,-21.01 10.34,-20.87 10.66,-20.59 15.19,-25.11 13.48,-26.86 12.08,-28.38 11.00,-29.68 10.22,-30.75 9.76,-31.59 9.60,-32.20 -9.60,-32.20 -10.22,-30.75 -11.00,-29.68 -12.08,-28.38 -13.48,-26.86 -15.19,-25.11 -10.66,-20.59 -10.07,-21.01 -9.87,-21.01 -9.72,-20.87 -9.63,-20.58">
        <request index="0" response="00000000" foes="11000000"/>
        <request index="1" response="00000000" foes="11000000"/>
        <request index="2" response="00000000" foes="00000000"/>
        <request index="3" response="00000000" foes="00000000"/>
        <request index="4" response="00000000" foes="00000000"/>
        <request index="5" response="00000000" foes="00000000"/>
        <request index="6" response="00000011" foes="10000011"/>
        <request index="7" response="01000011" foes="01000011"/>
    </junction>
    <junction id="J2" type="dead_end" x="200.00" y="0.00" incLanes="-E_0 -E_1 -E_2" intLanes="" shape="200.00,0.00 200.00,-9.60 200.00,0.00"/>
    <junction id="J3" type="priority" x="100.00" y="0.00" incLanes="+E_0 +E_1 +E_2 E3_0 E3_1 E3_2" intLanes="" shape="100.00,9.60 100.00,-9.60 100.00,9.60">
        <request index="0" response="0000" foes="0000"/>
        <request index="1" response="0000" foes="0000"/>
        <request index="2" response="0000" foes="0000"/>
        <request index="3" response="0000" foes="0000"/>
    </junction>
    <junction id="J4" type="priority" x="0.00" y="100.00" incLanes="+N_0 +N_1 +N_2 -E4_0 -E4_1 -E4_2" intLanes="" shape="-9.60,100.00 9.60,100.00 -9.60,100.00">
        <request index="0" response="0000" foes="0000"/>
        <request index="1" response="0000" foes="0000"/>
        <request index="2" response="0000" foes="0000"/>
        <request index="3" response="0000" foes="0000"/>
    </junction>
    <junction id="J5" type="dead_end" x="0.00" y="200.00" incLanes="-N_0 -N_1 -N_2" intLanes="" shape="0.00,200.00 9.60,200.00 0.00,200.00"/>
    <junction id="J6" type="priority" x="0.00" y="-100.00" incLanes="-E8_0 -E8_1 -E8_2 +S_0 +S_1 +S_2" intLanes="" shape="-9.60,-100.00 9.60,-100.00 -9.60,-100.00">
        <request index="0" response="0000" foes="0000"/>
        <request index="1" response="0000" foes="0000"/>
        <request index="2" response="0000" foes="0000"/>
        <request index="3" response="0000" foes="0000"/>
    </junction>
    <junction id="J7" type="dead_end" x="0.00" y="-200.00" incLanes="-S_0 -S_1 -S_2" intLanes="" shape="0.00,-200.00 -9.60,-200.00 0.00,-200.00"/>
    <junction id="J8" type="traffic_light" x="-31.25" y="0.00" incLanes="E13_0 E13_1 -E1_0 -E1_1 -E1_2 E0_0 E0_1 E0_2" intLanes="" shape="-25.11,15.19 -20.59,10.66 -21.01,10.07 -21.01,9.87 -20.87,9.72 -20.58,9.63 -20.15,9.60 -20.15,-9.60 -20.87,-9.72 -21.01,-9.87 -21.01,-10.07 -20.87,-10.34 -20.59,-10.66 -25.11,-15.19 -26.86,-13.48 -28.38,-12.08 -29.68,-11.00 -30.75,-10.22 -31.59,-9.76 -32.20,-9.60 -32.20,9.60 -30.75,10.22 -29.68,11.00 -28.38,12.08 -26.86,13.48">
        <request index="0" response="00001100" foes="00001110"/>
        <request index="1" response="00001101" foes="00001101"/>
        <request index="2" response="00000000" foes="00000011"/>
        <request index="3" response="00000000" foes="00000011"/>
        <request index="4" response="00000000" foes="00000000"/>
        <request index="5" response="00000000" foes="00000000"/>
        <request index="6" response="00000000" foes="00000000"/>
        <request index="7" response="00000000" foes="00000000"/>
    </junction>
    <junction id="J9" type="traffic_light" x="0.00" y="0.00" incLanes="E5_0 E5_1 E5_2 -E2_0 -E2_1 -E2_2 E9_0 E9_1 E9_2 E1_0 E1_1 E1_2" intLanes="" shape="-9.60,11.10 9.60,11.10 9.77,10.27 9.98,9.98 10.27,9.77 10.64,9.64 11.10,9.60 11.10,-9.60 10.27,-9.77 9.98,-9.98 9.77,-10.27 9.64,-10.64 9.60,-11.10 -9.60,-11.10 -9.77,-10.27 -9.98,-9.98 -10.27,-9.77 -10.64,-9.64 -11.10,-9.60 -11.10,9.60 -10.27,9.77 -9.98,9.98 -9.77,10.27 -9.64,10.64">
        <request index="0"  response="000000000000" foes="111100111000"/>
        <request index="1"  response="000000000000" foes="111100111000"/>
        <request index="2"  response="000011000000" foes="111011111000"/>
        <request index="3"  response="000111000111" foes="100111000111"/>
        <request index="4"  response="000111000111" foes="100111000111"/>
        <request index="5"  response="011111000111" foes="011111000111"/>
        <request index="6"  response="000000000000" foes="111000111100"/>
        <request index="7"  response="000000000000" foes="111000111100"/>
        <request index="8"  response="000000000011" foes="111000111011"/>
        <request index="9"  response="000111000111" foes="000111100111"/>
        <request index="10" response="000111000111" foes="000111100111"/>
        <request index="11" response="000111011111" foes="000111011111"/>
    </junction>

    <connection from="+E" to="-E3" fromLane="1" toLane="1" dir="s" state="M"/>
    <connection from="+E" to="-E3" fromLane="2" toLane="2" dir="s" state="M"/>
    <connection from="+N" to="E4" fromLane="1" toLane="1" dir="s" state="M"/>
    <connection from="+N" to="E4" fromLane="2" toLane="2" dir="s" state="M"/>
    <connection from="+S" to="E8" fromLane="1" toLane="1" dir="s" state="M"/>
    <connection from="+S" to="E8" fromLane="2" toLane="2" dir="s" state="M"/>
    <connection from="+W" to="E0" fromLane="1" toLane="1" dir="s" state="M"/>
    <connection from="+W" to="E0" fromLane="2" toLane="2" dir="s" state="M"/>
    <connection from="-E0" to="-W" fromLane="1" toLane="1" dir="s" state="M"/>
    <connection from="-E0" to="-W" fromLane="2" toLane="2" dir="s" state="M"/>
    <connection from="-E1" to="-E0" fromLane="1" toLane="1" tl="J8" linkIndex="2" dir="s" state="O"/>
    <connection from="-E1" to="-E0" fromLane="2" toLane="2" tl="J8" linkIndex="3" dir="s" state="O"/>
    <connection from="-E2" to="-E1" fromLane="1" toLane="1" tl="J9" linkIndex="3" dir="s" state="o"/>
    <connection from="-E2" to="-E1" fromLane="2" toLane="2" tl="J9" linkIndex="4" dir="s" state="o"/>
    <connection from="-E2" to="-E9" fromLane="2" toLane="2" tl="J9" linkIndex="5" dir="l" state="o"/>
    <connection from="-E3" to="E12" fromLane="1" toLane="0" tl="J10" linkIndex="0" dir="r" state="O"/>
    <connection from="-E3" to="E12" fromLane="1" toLane="1" tl="J10" linkIndex="1" dir="r" state="O"/>
    <connection from="-E3" to="-E2" fromLane="1" toLane="1" tl="J10" linkIndex="2" dir="s" state="O"/>
    <connection from="-E3" to="-E2" fromLane="2" toLane="2" tl="J10" linkIndex="3" dir="s" state="O"/>
    <connection from="-E4" to="-N" fromLane="1" toLane="1" dir="s" state="M"/>
    <connection from="-E4" to="-N" fromLane="2" toLane="2" dir="s" state="M"/>
    <connection from="-E5" to="-E4" fromLane="1" toLane="1" tl="J11" linkIndex="6" dir="s" state="O"/>
    <connection from="-E5" to="-E4" fromLane="2" toLane="2" tl="J11" linkIndex="7" dir="s" state="O"/>
    <connection from="-E8" to="-S" fromLane="1" toLane="1" dir="s" state="M"/>
    <connection from="-E8" to="-S" fromLane="2" toLane="2" dir="s" state="M"/>
    <connection from="-E9" to="-E8" fromLane="1" toLane="1" tl="J12" linkIndex="0" dir="s" state="O"/>
    <connection from="-E9" to="-E8" fromLane="2" toLane="2" tl="J12" linkIndex="1" dir="s" state="O"/>
    <connection from="E0" to="E10" fromLane="1" toLane="0" tl="J8" linkIndex="4" dir="r" state="O"/>
    <connection from="E0" to="E10" fromLane="1" toLane="1" tl="J8" linkIndex="5" dir="r" state="O"/>
    <connection from="E0" to="E1" fromLane="1" toLane="1" tl="J8" linkIndex="6" dir="s" state="O"/>
    <connection from="E0" to="E1" fromLane="2" toLane="2" tl="J8" linkIndex="7" dir="s" state="O"/>
    <connection from="E1" to="E2" fromLane="1" toLane="1" tl="J9" linkIndex="9" dir="s" state="o"/>
    <connection from="E1" to="E2" fromLane="2" toLane="2" tl="J9" linkIndex="10" dir="s" state="o"/>
    <connection from="E1" to="-E5" fromLane="2" toLane="2" tl="J9" linkIndex="11" dir="l" state="o"/>
    <connection from="E10" to="-E8" fromLane="0" toLane="1" tl="J12" linkIndex="6" dir="r" state="o"/>
    <connection from="E10" to="-E8" fromLane="1" toLane="1" tl="J12" linkIndex="7" dir="r" state="o"/>
    <connection from="E11" to="E3" fromLane="0" toLane="1" tl="J10" linkIndex="4" dir="r" state="o"/>
    <connection from="E11" to="E3" fromLane="1" toLane="1" tl="J10" linkIndex="5" dir="r" state="o"/>
    <connection from="E12" to="-E4" fromLane="0" toLane="1" tl="J11" linkIndex="4" dir="r" state="o"/>
    <connection from="E12" to="-E4" fromLane="1" toLane="1" tl="J11" linkIndex="5" dir="r" state="o"/>
    <connection from="E13" to="-E0" fromLane="0" toLane="1" tl="J8" linkIndex="0" dir="r" state="o"/>
    <connection from="E13" to="-E0" fromLane="1" toLane="1" tl="J8" linkIndex="1" dir="r" state="o"/>
    <connection from="E2" to="E3" fromLane="1" toLane="1" tl="J10" linkIndex="6" dir="s" state="O"/>
    <connection from="E2" to="E3" fromLane="2" toLane="2" tl="J10" linkIndex="7" dir="s" state="O"/>
    <connection from="E3" to="-E" fromLane="1" toLane="1" dir="s" state="M"/>
    <connection from="E3" to="-E" fromLane="2" toLane="2" dir="s" state="M"/>
    <connection from="E4" to="E13" fromLane="1" toLane="0" tl="J11" linkIndex="0" dir="r" state="O"/>
    <connection from="E4" to="E13" fromLane="1" toLane="1" tl="J11" linkIndex="1" dir="r" state="O"/>
    <connection from="E4" to="E5" fromLane="1" toLane="1" tl="J11" linkIndex="2" dir="s" state="O"/>
    <connection from="E4" to="E5" fromLane="2" toLane="2" tl="J11" linkIndex="3" dir="s" state="O"/>
    <connection from="E5" to="-E9" fromLane="1" toLane="1" tl="J9" linkIndex="0" dir="s" state="O"/>
    <connection from="E5" to="-E9" fromLane="2" toLane="2" tl="J9" linkIndex="1" dir="s" state="O"/>
    <connection from="E5" to="E2" fromLane="2" toLane="2" tl="J9" linkIndex="2" dir="l" state="o"/>
    <connection from="E8" to="E11" fromLane="1" toLane="0" tl="J12" linkIndex="2" dir="r" state="O"/>
    <connection from="E8" to="E11" fromLane="1" toLane="1" tl="J12" linkIndex="3" dir="r" state="O"/>
    <connection from="E8" to="E9" fromLane="1" toLane="1" tl="J12" linkIndex="4" dir="s" state="O"/>
    <connection from="E8" to="E9" fromLane="2" toLane="2" tl="J12" linkIndex="5" dir="s" state="O"/>
    <connection from="E9" to="-E5" fromLane="1" toLane="1" tl="J9" linkIndex="6" dir="s" state="O"/>
    <connection from="E9" to="-E5" fromLane="2" toLane="2" tl="J9" linkIndex="7" dir="s" state="O"/>
    <connection from="E9" to="-E1" fromLane="2" toLane="2" tl="J9" linkIndex="8" dir="l" state="o"/>

</net>
