<?xml version="1.0" encoding="UTF-8"?>

<!-- generated on 2023-04-13 13:09:46 by Eclipse SUMO netedit Version 1.15.0
<configuration xmlns:xsi="http://www.w3.org/2001/XMLSchema-instance" xsi:noNamespaceSchemaLocation="http://sumo.dlr.de/xsd/netconvertConfiguration.xsd">

    <input>
        <sumo-net-file value="Z:\Users\708891\Desktop\AP research\Simulations\michiganLeft.net.xml"/>
    </input>

    <output>
        <output-file value="Z:\Users\708891\Desktop\AP research\Simulations\michiganLeft.net.xml"/>
    </output>

    <processing>
        <geometry.min-radius.fix.railways value="false"/>
        <geometry.max-grade.fix value="false"/>
        <offset.disable-normalization value="true"/>
        <lefthand value="0"/>
    </processing>

    <junctions>
        <no-internal-links value="true"/>
        <no-turnarounds value="true"/>
        <junctions.corner-detail value="5"/>
        <junctions.limit-turn-speed value="5.50"/>
        <rectangular-lane-cut value="0"/>
    </junctions>

    <pedestrian>
        <walkingareas value="0"/>
    </pedestrian>

    <netedit>
        <route-files value="Z:\Users\708891\Desktop\AP research\Simulations\unifiedDistribution.rou.xml"/>
    </netedit>

</configuration>
-->

<net version="1.9" junctionCornerDetail="5" limitTurnSpeed="5.50" xmlns:xsi="http://www.w3.org/2001/XMLSchema-instance" xsi:noNamespaceSchemaLocation="http://sumo.dlr.de/xsd/net_file.xsd">

    <location netOffset="0.00,0.00" convBoundary="-200.00,-200.00,200.00,200.00" origBoundary="-10000000000.00,-10000000000.00,10000000000.00,10000000000.00" projParameter="!"/>

    <edge id="+E" from="J2" to="J3" priority="-1">
        <lane id="+E_0" index="0" allow="pedestrian" speed="13.89" length="100.00" shape="200.00,8.00 104.00,8.00"/>
        <lane id="+E_1" index="1" disallow="pedestrian" speed="13.89" length="100.00" shape="200.00,4.80 104.00,4.80"/>
        <lane id="+E_2" index="2" disallow="pedestrian" speed="13.89" length="100.00" shape="200.00,1.60 104.00,1.60"/>
    </edge>
    <edge id="+N" from="J5" to="J4" priority="-1">
        <lane id="+N_0" index="0" allow="pedestrian" speed="13.89" length="100.00" shape="-8.00,200.00 -8.00,100.00"/>
        <lane id="+N_1" index="1" disallow="pedestrian" speed="13.89" length="100.00" shape="-4.80,200.00 -4.80,100.00"/>
        <lane id="+N_2" index="2" disallow="pedestrian" speed="13.89" length="100.00" shape="-1.60,200.00 -1.60,100.00"/>
    </edge>
    <edge id="+S" from="J7" to="J6" priority="-1">
        <lane id="+S_0" index="0" allow="pedestrian" speed="13.89" length="100.00" shape="8.00,-200.00 8.00,-100.00"/>
        <lane id="+S_1" index="1" disallow="pedestrian" speed="13.89" length="100.00" shape="4.80,-200.00 4.80,-100.00"/>
        <lane id="+S_2" index="2" disallow="pedestrian" speed="13.89" length="100.00" shape="1.60,-200.00 1.60,-100.00"/>
    </edge>
    <edge id="+W" from="J0" to="J1" priority="-1">
        <lane id="+W_0" index="0" allow="pedestrian" speed="13.89" length="100.00" shape="-200.00,-8.00 -104.00,-8.00"/>
        <lane id="+W_1" index="1" disallow="pedestrian" speed="13.89" length="100.00" shape="-200.00,-4.80 -104.00,-4.80"/>
        <lane id="+W_2" index="2" disallow="pedestrian" speed="13.89" length="100.00" shape="-200.00,-1.60 -104.00,-1.60"/>
    </edge>
    <edge id="-E" from="J3" to="J2" priority="-1">
        <lane id="-E_0" index="0" allow="pedestrian" speed="13.89" length="100.00" shape="104.00,-8.00 200.00,-8.00"/>
        <lane id="-E_1" index="1" disallow="pedestrian" speed="13.89" length="100.00" shape="104.00,-4.80 200.00,-4.80"/>
        <lane id="-E_2" index="2" disallow="pedestrian" speed="13.89" length="100.00" shape="104.00,-1.60 200.00,-1.60"/>
    </edge>
    <edge id="-E23" from="J1" to="J16" priority="-1">
        <lane id="-E23_0" index="0" allow="pedestrian" speed="13.89" length="37.50" shape="-96.00,-8.00 -66.50,-8.00"/>
        <lane id="-E23_1" index="1" disallow="pedestrian" speed="13.89" length="37.50" shape="-96.00,-4.80 -66.50,-4.80"/>
        <lane id="-E23_2" index="2" disallow="pedestrian" speed="13.89" length="37.50" shape="-96.00,-1.60 -66.50,-1.60"/>
    </edge>
    <edge id="-E25" from="J3" to="J17" priority="-1">
        <lane id="-E25_0" index="0" allow="pedestrian" speed="13.89" length="37.50" shape="96.00,8.00 66.50,8.00"/>
        <lane id="-E25_1" index="1" disallow="pedestrian" speed="13.89" length="37.50" shape="96.00,4.80 66.50,4.80"/>
        <lane id="-E25_2" index="2" disallow="pedestrian" speed="13.89" length="37.50" shape="96.00,1.60 66.50,1.60"/>
    </edge>
    <edge id="-E27" from="J18" to="J4" priority="-1">
        <lane id="-E27_0" index="0" allow="pedestrian" speed="13.89" length="100.00" shape="8.00,14.30 8.00,100.00"/>
        <lane id="-E27_1" index="1" disallow="pedestrian" speed="13.89" length="100.00" shape="4.80,14.30 4.80,100.00"/>
        <lane id="-E27_2" index="2" disallow="pedestrian" speed="13.89" length="100.00" shape="1.60,14.30 1.60,100.00"/>
    </edge>
    <edge id="-E28" from="J6" to="J18" priority="-1">
        <lane id="-E28_0" index="0" allow="pedestrian" speed="13.89" length="100.00" shape="8.00,-100.00 8.00,-14.30"/>
        <lane id="-E28_1" index="1" disallow="pedestrian" speed="13.89" length="100.00" shape="4.80,-100.00 4.80,-14.30"/>
        <lane id="-E28_2" index="2" disallow="pedestrian" speed="13.89" length="100.00" shape="1.60,-100.00 1.60,-14.30"/>
    </edge>
    <edge id="-E33" from="J18" to="J20" priority="-1">
        <lane id="-E33_0" index="0" allow="pedestrian" speed="13.89" length="25.00" shape="-11.10,8.00 -21.00,8.00"/>
        <lane id="-E33_1" index="1" disallow="pedestrian" speed="13.89" length="25.00" shape="-11.10,4.80 -21.00,4.80"/>
        <lane id="-E33_2" index="2" disallow="pedestrian" speed="13.89" length="25.00" shape="-11.10,1.60 -21.00,1.60"/>
    </edge>
    <edge id="-E34" from="J21" to="J18" priority="-1">
        <lane id="-E34_0" index="0" allow="pedestrian" speed="13.89" length="25.00" shape="21.00,11.20 11.10,11.20"/>
        <lane id="-E34_1" index="1" disallow="pedestrian" speed="13.89" length="25.00" shape="21.00,8.00 11.10,8.00"/>
        <lane id="-E34_2" index="2" disallow="pedestrian" speed="13.89" length="25.00" shape="21.00,4.80 11.10,4.80"/>
        <lane id="-E34_3" index="3" disallow="pedestrian" speed="13.89" length="25.00" shape="21.00,1.60 11.10,1.60"/>
    </edge>
    <edge id="-E35" from="J16" to="J20" priority="-1">
        <lane id="-E35_0" index="0" allow="pedestrian" speed="13.89" length="37.50" shape="-58.50,-8.00 -29.00,-8.00"/>
        <lane id="-E35_1" index="1" disallow="pedestrian" speed="13.89" length="37.50" shape="-58.50,-4.80 -29.00,-4.80"/>
        <lane id="-E35_2" index="2" disallow="pedestrian" speed="13.89" length="37.50" shape="-58.50,-1.60 -29.00,-1.60"/>
    </edge>
    <edge id="-E36" from="J17" to="J21" priority="-1">
        <lane id="-E36_0" index="0" allow="pedestrian" speed="13.89" length="37.50" shape="58.50,8.00 29.00,8.00"/>
        <lane id="-E36_1" index="1" disallow="pedestrian" speed="13.89" length="37.50" shape="58.50,4.80 29.00,4.80"/>
        <lane id="-E36_2" index="2" disallow="pedestrian" speed="13.89" length="37.50" shape="58.50,1.60 29.00,1.60"/>
    </edge>
    <edge id="-N" from="J4" to="J5" priority="-1">
        <lane id="-N_0" index="0" allow="pedestrian" speed="13.89" length="100.00" shape="8.00,100.00 8.00,200.00"/>
        <lane id="-N_1" index="1" disallow="pedestrian" speed="13.89" length="100.00" shape="4.80,100.00 4.80,200.00"/>
        <lane id="-N_2" index="2" disallow="pedestrian" speed="13.89" length="100.00" shape="1.60,100.00 1.60,200.00"/>
    </edge>
    <edge id="-S" from="J6" to="J7" priority="-1">
        <lane id="-S_0" index="0" allow="pedestrian" speed="13.89" length="100.00" shape="-8.00,-100.00 -8.00,-200.00"/>
        <lane id="-S_1" index="1" disallow="pedestrian" speed="13.89" length="100.00" shape="-4.80,-100.00 -4.80,-200.00"/>
        <lane id="-S_2" index="2" disallow="pedestrian" speed="13.89" length="100.00" shape="-1.60,-100.00 -1.60,-200.00"/>
    </edge>
    <edge id="-W" from="J1" to="J0" priority="-1">
        <lane id="-W_0" index="0" allow="pedestrian" speed="13.89" length="100.00" shape="-104.00,8.00 -200.00,8.00"/>
        <lane id="-W_1" index="1" disallow="pedestrian" speed="13.89" length="100.00" shape="-104.00,4.80 -200.00,4.80"/>
        <lane id="-W_2" index="2" disallow="pedestrian" speed="13.89" length="100.00" shape="-104.00,1.60 -200.00,1.60"/>
    </edge>
    <edge id="E23" from="J16" to="J1" priority="-1">
        <lane id="E23_0" index="0" allow="pedestrian" speed="13.89" length="37.50" shape="-66.50,11.20 -96.00,11.20"/>
        <lane id="E23_1" index="1" disallow="pedestrian" speed="13.89" length="37.50" shape="-66.50,8.00 -96.00,8.00"/>
        <lane id="E23_2" index="2" disallow="pedestrian" speed="13.89" length="37.50" shape="-66.50,4.80 -96.00,4.80"/>
        <lane id="E23_3" index="3" disallow="pedestrian" speed="13.89" length="37.50" shape="-66.50,1.60 -96.00,1.60"/>
    </edge>
    <edge id="E25" from="J17" to="J3" priority="-1">
        <lane id="E25_0" index="0" allow="pedestrian" speed="13.89" length="37.50" shape="66.50,-11.20 96.00,-11.20"/>
        <lane id="E25_1" index="1" disallow="pedestrian" speed="13.89" length="37.50" shape="66.50,-8.00 96.00,-8.00"/>
        <lane id="E25_2" index="2" disallow="pedestrian" speed="13.89" length="37.50" shape="66.50,-4.80 96.00,-4.80"/>
        <lane id="E25_3" index="3" disallow="pedestrian" speed="13.89" length="37.50" shape="66.50,-1.60 96.00,-1.60"/>
    </edge>
    <edge id="E27" from="J4" to="J18" priority="-1">
        <lane id="E27_0" index="0" allow="pedestrian" speed="13.89" length="100.00" shape="-8.00,100.00 -8.00,14.30"/>
        <lane id="E27_1" index="1" disallow="pedestrian" speed="13.89" length="100.00" shape="-4.80,100.00 -4.80,14.30"/>
        <lane id="E27_2" index="2" disallow="pedestrian" speed="13.89" length="100.00" shape="-1.60,100.00 -1.60,14.30"/>
    </edge>
    <edge id="E28" from="J18" to="J6" priority="-1">
        <lane id="E28_0" index="0" allow="pedestrian" speed="13.89" length="100.00" shape="-8.00,-14.30 -8.00,-100.00"/>
        <lane id="E28_1" index="1" disallow="pedestrian" speed="13.89" length="100.00" shape="-4.80,-14.30 -4.80,-100.00"/>
        <lane id="E28_2" index="2" disallow="pedestrian" speed="13.89" length="100.00" shape="-1.60,-14.30 -1.60,-100.00"/>
    </edge>
    <edge id="E33" from="J20" to="J18" priority="-1">
        <lane id="E33_0" index="0" allow="pedestrian" speed="13.89" length="25.00" shape="-21.00,-11.20 -11.10,-11.20"/>
        <lane id="E33_1" index="1" disallow="pedestrian" speed="13.89" length="25.00" shape="-21.00,-8.00 -11.10,-8.00"/>
        <lane id="E33_2" index="2" disallow="pedestrian" speed="13.89" length="25.00" shape="-21.00,-4.80 -11.10,-4.80"/>
        <lane id="E33_3" index="3" disallow="pedestrian" speed="13.89" length="25.00" shape="-21.00,-1.60 -11.10,-1.60"/>
    </edge>
    <edge id="E34" from="J18" to="J21" priority="-1">
        <lane id="E34_0" index="0" allow="pedestrian" speed="13.89" length="25.00" shape="11.10,-8.00 21.00,-8.00"/>
        <lane id="E34_1" index="1" disallow="pedestrian" speed="13.89" length="25.00" shape="11.10,-4.80 21.00,-4.80"/>
        <lane id="E34_2" index="2" disallow="pedestrian" speed="13.89" length="25.00" shape="11.10,-1.60 21.00,-1.60"/>
    </edge>
    <edge id="E35" from="J20" to="J16" priority="-1">
        <lane id="E35_0" index="0" allow="pedestrian" speed="13.89" length="37.50" shape="-29.00,8.00 -58.50,8.00"/>
        <lane id="E35_1" index="1" disallow="pedestrian" speed="13.89" length="37.50" shape="-29.00,4.80 -58.50,4.80"/>
        <lane id="E35_2" index="2" disallow="pedestrian" speed="13.89" length="37.50" shape="-29.00,1.60 -58.50,1.60"/>
    </edge>
    <edge id="E36" from="J21" to="J17" priority="-1">
        <lane id="E36_0" index="0" allow="pedestrian" speed="13.89" length="37.50" shape="29.00,-8.00 58.50,-8.00"/>
        <lane id="E36_1" index="1" disallow="pedestrian" speed="13.89" length="37.50" shape="29.00,-4.80 58.50,-4.80"/>
        <lane id="E36_2" index="2" disallow="pedestrian" speed="13.89" length="37.50" shape="29.00,-1.60 58.50,-1.60"/>
    </edge>

    <tlLogic id="J18" type="static" programID="0" offset="0">
        <phase duration="22" state="grGGGgrGGG"/>
        <phase duration="3"  state="grgyygrgyy"/>
        <phase duration="22" state="GGgrrGGgrr"/>
        <phase duration="3"  state="gygrrgygrr"/>
    </tlLogic>

    <junction id="J0" type="dead_end" x="-200.00" y="0.00" incLanes="-W_0 -W_1 -W_2" intLanes="" shape="-200.00,0.00 -200.00,9.60 -200.00,0.00"/>
    <junction id="J1" type="priority" x="-100.00" y="0.00" incLanes="E23_0 E23_1 E23_2 E23_3 +W_0 +W_1 +W_2" intLanes="" shape="-96.00,12.80 -96.00,-9.60 -104.00,-9.60 -104.00,9.60 -100.97,10.43 -99.03,11.97 -97.79,12.56">
        <request index="0" response="00000" foes="00000"/>
        <request index="1" response="00000" foes="00000"/>
        <request index="2" response="00000" foes="00000"/>
        <request index="3" response="10000" foes="10000"/>
        <request index="4" response="00000" foes="01000"/>
    </junction>
    <junction id="J16" type="priority" x="-62.50" y="0.00" incLanes="E35_0 E35_1 E35_2 -E23_0 -E23_1 -E23_2" intLanes="" shape="-58.50,9.60 -58.50,-9.60 -66.50,-9.60 -66.50,12.80 -63.47,11.97 -61.53,10.43 -60.29,9.84">
        <request index="0" response="00000" foes="00000"/>
        <request index="1" response="00000" foes="00000"/>
        <request index="2" response="00000" foes="00000"/>
        <request index="3" response="00000" foes="00000"/>
        <request index="4" response="00000" foes="00000"/>
    </junction>
    <junction id="J17" type="priority" x="62.50" y="0.00" incLanes="-E25_0 -E25_1 -E25_2 E36_0 E36_1 E36_2" intLanes="" shape="66.50,9.60 66.50,-12.80 63.47,-11.97 61.53,-10.43 60.29,-9.84 58.50,-9.60 58.50,9.60">
        <request index="0" response="00000" foes="00000"/>
        <request index="1" response="00000" foes="00000"/>
        <request index="2" response="00000" foes="00000"/>
        <request index="3" response="00000" foes="00000"/>
        <request index="4" response="00000" foes="00000"/>
    </junction>
    <junction id="J18" type="traffic_light" x="0.00" y="0.00" incLanes="E27_0 E27_1 E27_2 -E34_0 -E34_1 -E34_2 -E34_3 -E28_0 -E28_1 -E28_2 E33_0 E33_1 E33_2 E33_3" intLanes="" shape="-9.60,14.30 9.60,14.30 9.77,13.47 9.98,13.17 10.27,12.97 10.64,12.84 11.10,12.80 11.10,-9.60 10.27,-10.12 9.97,-10.77 9.77,-11.69 9.64,-12.86 9.60,-14.30 -9.60,-14.30 -9.77,-13.47 -9.98,-13.17 -10.27,-12.97 -10.64,-12.84 -11.10,-12.80 -11.10,9.60 -10.27,10.12 -9.97,10.77 -9.77,11.69 -9.64,12.86">
        <request index="0" response="0000011000" foes="0000011000"/>
        <request index="1" response="1100011000" foes="1100011000"/>
        <request index="2" response="0000000000" foes="0000000000"/>
        <request index="3" response="0000000000" foes="0001000011"/>
        <request index="4" response="0000000000" foes="0001000011"/>
        <request index="5" response="1100000000" foes="1100000000"/>
        <request index="6" response="1100011000" foes="1100011000"/>
        <request index="7" response="0000000000" foes="0000000000"/>
        <request index="8" response="0000000000" foes="0001100010"/>
        <request index="9" response="0000000000" foes="0001100010"/>
    </junction>
    <junction id="J2" type="dead_end" x="200.00" y="0.00" incLanes="-E_0 -E_1 -E_2" intLanes="" shape="200.00,0.00 200.00,-9.60 200.00,0.00"/>
    <junction id="J20" type="priority" x="-25.00" y="0.00" incLanes="-E33_0 -E33_1 -E33_2 -E35_0 -E35_1 -E35_2" intLanes="" shape="-21.00,9.60 -21.00,-12.80 -24.03,-11.97 -25.97,-10.43 -27.21,-9.84 -29.00,-9.60 -29.00,9.60">
        <request index="0" response="00000" foes="00000"/>
        <request index="1" response="00000" foes="00000"/>
        <request index="2" response="00000" foes="00000"/>
        <request index="3" response="00000" foes="00000"/>
        <request index="4" response="00000" foes="00000"/>
    </junction>
    <junction id="J21" type="priority" x="25.00" y="0.00" incLanes="-E36_0 -E36_1 -E36_2 E34_0 E34_1 E34_2" intLanes="" shape="29.00,9.60 29.00,-9.60 21.00,-9.60 21.00,12.80 24.03,11.97 25.97,10.43 27.21,9.84">
        <request index="0" response="00000" foes="00000"/>
        <request index="1" response="00000" foes="00000"/>
        <request index="2" response="00000" foes="00000"/>
        <request index="3" response="00000" foes="00000"/>
        <request index="4" response="00000" foes="00000"/>
    </junction>
    <junction id="J3" type="priority" x="100.00" y="0.00" incLanes="+E_0 +E_1 +E_2 E25_0 E25_1 E25_2 E25_3" intLanes="" shape="104.00,9.60 104.00,-9.60 100.97,-10.43 99.03,-11.97 97.79,-12.56 96.00,-12.80 96.00,9.60">
        <request index="0" response="00010" foes="00010"/>
        <request index="1" response="00000" foes="00001"/>
        <request index="2" response="00000" foes="00000"/>
        <request index="3" response="00000" foes="00000"/>
        <request index="4" response="00000" foes="00000"/>
    </junction>
    <junction id="J4" type="priority" x="0.00" y="100.00" incLanes="+N_0 +N_1 +N_2 -E27_0 -E27_1 -E27_2" intLanes="" shape="-9.60,100.00 9.60,100.00 -9.60,100.00">
        <request index="0" response="0000" foes="0000"/>
        <request index="1" response="0000" foes="0000"/>
        <request index="2" response="0000" foes="0000"/>
        <request index="3" response="0000" foes="0000"/>
    </junction>
    <junction id="J5" type="dead_end" x="0.00" y="200.00" incLanes="-N_0 -N_1 -N_2" intLanes="" shape="0.00,200.00 9.60,200.00 0.00,200.00"/>
    <junction id="J6" type="priority" x="0.00" y="-100.00" incLanes="E28_0 E28_1 E28_2 +S_0 +S_1 +S_2" intLanes="" shape="-9.60,-100.00 9.60,-100.00 -9.60,-100.00">
        <request index="0" response="0000" foes="0000"/>
        <request index="1" response="0000" foes="0000"/>
        <request index="2" response="0000" foes="0000"/>
        <request index="3" response="0000" foes="0000"/>
    </junction>
    <junction id="J7" type="dead_end" x="0.00" y="-200.00" incLanes="-S_0 -S_1 -S_2" intLanes="" shape="0.00,-200.00 -9.60,-200.00 0.00,-200.00"/>

    <connection from="+E" to="-E25" fromLane="1" toLane="1" keepClear="0" dir="s" state="m"/>
    <connection from="+E" to="-E25" fromLane="2" toLane="1" keepClear="0" dir="s" state="M"/>
    <connection from="+N" to="E27" fromLane="1" toLane="1" dir="s" state="M"/>
    <connection from="+N" to="E27" fromLane="2" toLane="2" dir="s" state="M"/>
    <connection from="+S" to="-E28" fromLane="1" toLane="1" dir="s" state="M"/>
    <connection from="+S" to="-E28" fromLane="2" toLane="2" dir="s" state="M"/>
    <connection from="+W" to="-E23" fromLane="1" toLane="1" dir="s" state="m"/>
    <connection from="+W" to="-E23" fromLane="2" toLane="1" dir="s" state="M"/>
    <connection from="-E23" to="-E35" fromLane="1" toLane="1" dir="s" state="M"/>
    <connection from="-E23" to="-E35" fromLane="2" toLane="2" dir="s" state="M"/>
    <connection from="-E25" to="-E36" fromLane="1" toLane="1" dir="s" state="M"/>
    <connection from="-E25" to="-E36" fromLane="2" toLane="2" dir="s" state="M"/>
    <connection from="-E27" to="-N" fromLane="1" toLane="1" dir="s" state="M"/>
    <connection from="-E27" to="-N" fromLane="2" toLane="2" dir="s" state="M"/>
    <connection from="-E28" to="E34" fromLane="1" toLane="1" tl="J18" linkIndex="5" dir="r" state="o"/>
    <connection from="-E28" to="-E27" fromLane="2" toLane="2" tl="J18" linkIndex="6" dir="s" state="o"/>
    <connection from="-E33" to="E35" fromLane="1" toLane="1" dir="s" state="M"/>
    <connection from="-E33" to="E35" fromLane="2" toLane="2" dir="s" state="M"/>
    <connection from="-E34" to="-E27" fromLane="1" toLane="1" tl="J18" linkIndex="2" dir="r" state="O"/>
    <connection from="-E34" to="-E33" fromLane="2" toLane="1" tl="J18" linkIndex="3" dir="s" state="O"/>
    <connection from="-E34" to="-E33" fromLane="3" toLane="2" tl="J18" linkIndex="4" dir="s" state="O"/>
    <connection from="-E35" to="E33" fromLane="1" toLane="1" dir="s" state="M"/>
    <connection from="-E35" to="E33" fromLane="1" toLane="2" dir="s" state="M"/>
    <connection from="-E35" to="E33" fromLane="2" toLane="3" dir="s" state="M"/>
    <connection from="-E36" to="-E34" fromLane="1" toLane="1" dir="s" state="M"/>
    <connection from="-E36" to="-E34" fromLane="1" toLane="2" dir="s" state="M"/>
    <connection from="-E36" to="-E34" fromLane="2" toLane="3" dir="s" state="M"/>
    <connection from="E23" to="-W" fromLane="1" toLane="1" dir="s" state="M"/>
    <connection from="E23" to="-W" fromLane="2" toLane="2" dir="s" state="M"/>
    <connection from="E23" to="-E23" fromLane="3" toLane="2" dir="t" state="M"/>
    <connection from="E25" to="-E" fromLane="1" toLane="1" keepClear="0" dir="s" state="M"/>
    <connection from="E25" to="-E" fromLane="2" toLane="2" keepClear="0" dir="s" state="M"/>
    <connection from="E25" to="-E25" fromLane="3" toLane="2" keepClear="0" dir="t" state="M"/>
    <connection from="E27" to="-E33" fromLane="1" toLane="1" tl="J18" linkIndex="0" dir="r" state="o"/>
    <connection from="E27" to="E28" fromLane="2" toLane="2" tl="J18" linkIndex="1" dir="s" state="o"/>
    <connection from="E28" to="-S" fromLane="1" toLane="1" dir="s" state="M"/>
    <connection from="E28" to="-S" fromLane="2" toLane="2" dir="s" state="M"/>
    <connection from="E33" to="E28" fromLane="1" toLane="1" tl="J18" linkIndex="7" dir="r" state="O"/>
    <connection from="E33" to="E34" fromLane="2" toLane="1" tl="J18" linkIndex="8" dir="s" state="O"/>
    <connection from="E33" to="E34" fromLane="3" toLane="2" tl="J18" linkIndex="9" dir="s" state="O"/>
    <connection from="E34" to="E36" fromLane="1" toLane="1" dir="s" state="M"/>
    <connection from="E34" to="E36" fromLane="2" toLane="2" dir="s" state="M"/>
    <connection from="E35" to="E23" fromLane="1" toLane="1" dir="s" state="M"/>
    <connection from="E35" to="E23" fromLane="2" toLane="2" dir="s" state="M"/>
    <connection from="E35" to="E23" fromLane="2" toLane="3" dir="s" state="M"/>
    <connection from="E36" to="E25" fromLane="1" toLane="1" dir="s" state="M"/>
    <connection from="E36" to="E25" fromLane="1" toLane="2" dir="s" state="M"/>
    <connection from="E36" to="E25" fromLane="2" toLane="3" dir="s" state="M"/>

</net>
