<?xml version="1.0" encoding="UTF-8"?>

<!-- generated on 2023-04-07 11:28:49 by Eclipse SUMO netedit Version 1.15.0
<configuration xmlns:xsi="http://www.w3.org/2001/XMLSchema-instance" xsi:noNamespaceSchemaLocation="http://sumo.dlr.de/xsd/netconvertConfiguration.xsd">

    <input>
        <sumo-net-file value="Z:\Users\708891\Desktop\AP research\Simulations\Template.net.xml"/>
    </input>

    <output>
        <output-file value="Z:\Users\708891\Desktop\AP research\Simulations\roundabout.net.xml"/>
    </output>

    <processing>
        <geometry.min-radius.fix.railways value="false"/>
        <geometry.max-grade.fix value="false"/>
        <offset.disable-normalization value="true"/>
        <lefthand value="0"/>
    </processing>

    <junctions>
        <no-internal-links value="true"/>
        <no-turnarounds value="true"/>
        <junctions.corner-detail value="5"/>
        <junctions.limit-turn-speed value="5.50"/>
        <rectangular-lane-cut value="0"/>
    </junctions>

    <pedestrian>
        <walkingareas value="0"/>
    </pedestrian>

</configuration>
-->

<net version="1.9" junctionCornerDetail="5" limitTurnSpeed="5.50" xmlns:xsi="http://www.w3.org/2001/XMLSchema-instance" xsi:noNamespaceSchemaLocation="http://sumo.dlr.de/xsd/net_file.xsd">

    <location netOffset="0.00,0.00" convBoundary="-200.00,-200.00,200.00,200.00" origBoundary="-10000000000.00,-10000000000.00,10000000000.00,10000000000.00" projParameter="!"/>

    <edge id="+E" from="J2" to="J3" priority="-1">
        <lane id="+E_0" index="0" allow="pedestrian" speed="13.89" length="100.00" shape="200.00,8.00 100.00,8.00"/>
        <lane id="+E_1" index="1" disallow="pedestrian" speed="13.89" length="100.00" shape="200.00,4.80 100.00,4.80"/>
        <lane id="+E_2" index="2" disallow="pedestrian" speed="13.89" length="100.00" shape="200.00,1.60 100.00,1.60"/>
    </edge>
    <edge id="+N" from="J5" to="J4" priority="-1">
        <lane id="+N_0" index="0" allow="pedestrian" speed="13.89" length="100.00" shape="-8.00,200.00 -8.00,100.00"/>
        <lane id="+N_1" index="1" disallow="pedestrian" speed="13.89" length="100.00" shape="-4.80,200.00 -4.80,100.00"/>
        <lane id="+N_2" index="2" disallow="pedestrian" speed="13.89" length="100.00" shape="-1.60,200.00 -1.60,100.00"/>
    </edge>
    <edge id="+S" from="J7" to="J6" priority="-1">
        <lane id="+S_0" index="0" allow="pedestrian" speed="13.89" length="100.00" shape="8.00,-200.00 8.00,-100.00"/>
        <lane id="+S_1" index="1" disallow="pedestrian" speed="13.89" length="100.00" shape="4.80,-200.00 4.80,-100.00"/>
        <lane id="+S_2" index="2" disallow="pedestrian" speed="13.89" length="100.00" shape="1.60,-200.00 1.60,-100.00"/>
    </edge>
    <edge id="+W" from="J0" to="J1" priority="-1">
        <lane id="+W_0" index="0" allow="pedestrian" speed="13.89" length="100.00" shape="-200.00,-8.00 -100.00,-8.00"/>
        <lane id="+W_1" index="1" disallow="pedestrian" speed="13.89" length="100.00" shape="-200.00,-4.80 -100.00,-4.80"/>
        <lane id="+W_2" index="2" disallow="pedestrian" speed="13.89" length="100.00" shape="-200.00,-1.60 -100.00,-1.60"/>
    </edge>
    <edge id="-E" from="J3" to="J2" priority="-1">
        <lane id="-E_0" index="0" allow="pedestrian" speed="13.89" length="100.00" shape="100.00,-8.00 200.00,-8.00"/>
        <lane id="-E_1" index="1" disallow="pedestrian" speed="13.89" length="100.00" shape="100.00,-4.80 200.00,-4.80"/>
        <lane id="-E_2" index="2" disallow="pedestrian" speed="13.89" length="100.00" shape="100.00,-1.60 200.00,-1.60"/>
    </edge>
    <edge id="-E0" from="J8" to="J1" priority="-1">
        <lane id="-E0_0" index="0" allow="pedestrian" speed="13.89" length="69.33" shape="-35.21,8.00 -100.00,8.00"/>
        <lane id="-E0_1" index="1" disallow="pedestrian" speed="13.89" length="69.33" shape="-35.21,4.80 -100.00,4.80"/>
        <lane id="-E0_2" index="2" disallow="pedestrian" speed="13.89" length="69.33" shape="-35.21,1.60 -100.00,1.60"/>
    </edge>
    <edge id="-E1" from="J9" to="J4" priority="-1">
        <lane id="-E1_0" index="0" allow="pedestrian" speed="13.89" length="69.33" shape="8.00,35.21 8.00,100.00"/>
        <lane id="-E1_1" index="1" disallow="pedestrian" speed="13.89" length="69.33" shape="4.80,35.21 4.80,100.00"/>
        <lane id="-E1_2" index="2" disallow="pedestrian" speed="13.89" length="69.33" shape="1.60,35.21 1.60,100.00"/>
    </edge>
    <edge id="-E2" from="J10" to="J3" priority="-1">
        <lane id="-E2_0" index="0" allow="pedestrian" speed="13.89" length="69.33" shape="35.21,-8.00 100.00,-8.00"/>
        <lane id="-E2_1" index="1" disallow="pedestrian" speed="13.89" length="69.33" shape="35.21,-4.80 100.00,-4.80"/>
        <lane id="-E2_2" index="2" disallow="pedestrian" speed="13.89" length="69.33" shape="35.21,-1.60 100.00,-1.60"/>
    </edge>
    <edge id="-E3" from="J11" to="J6" priority="-1">
        <lane id="-E3_0" index="0" allow="pedestrian" speed="13.89" length="69.33" shape="-8.00,-35.21 -8.00,-100.00"/>
        <lane id="-E3_1" index="1" disallow="pedestrian" speed="13.89" length="69.33" shape="-4.80,-35.21 -4.80,-100.00"/>
        <lane id="-E3_2" index="2" disallow="pedestrian" speed="13.89" length="69.33" shape="-1.60,-35.21 -1.60,-100.00"/>
    </edge>
    <edge id="-N" from="J4" to="J5" priority="-1">
        <lane id="-N_0" index="0" allow="pedestrian" speed="13.89" length="100.00" shape="8.00,100.00 8.00,200.00"/>
        <lane id="-N_1" index="1" disallow="pedestrian" speed="13.89" length="100.00" shape="4.80,100.00 4.80,200.00"/>
        <lane id="-N_2" index="2" disallow="pedestrian" speed="13.89" length="100.00" shape="1.60,100.00 1.60,200.00"/>
    </edge>
    <edge id="-S" from="J6" to="J7" priority="-1">
        <lane id="-S_0" index="0" allow="pedestrian" speed="13.89" length="100.00" shape="-8.00,-100.00 -8.00,-200.00"/>
        <lane id="-S_1" index="1" disallow="pedestrian" speed="13.89" length="100.00" shape="-4.80,-100.00 -4.80,-200.00"/>
        <lane id="-S_2" index="2" disallow="pedestrian" speed="13.89" length="100.00" shape="-1.60,-100.00 -1.60,-200.00"/>
    </edge>
    <edge id="-W" from="J1" to="J0" priority="-1">
        <lane id="-W_0" index="0" allow="pedestrian" speed="13.89" length="100.00" shape="-100.00,8.00 -200.00,8.00"/>
        <lane id="-W_1" index="1" disallow="pedestrian" speed="13.89" length="100.00" shape="-100.00,4.80 -200.00,4.80"/>
        <lane id="-W_2" index="2" disallow="pedestrian" speed="13.89" length="100.00" shape="-100.00,1.60 -200.00,1.60"/>
    </edge>
    <edge id="E0" from="J1" to="J8" priority="-1">
        <lane id="E0_0" index="0" allow="pedestrian" speed="13.89" length="69.33" shape="-100.00,-8.00 -35.21,-8.00"/>
        <lane id="E0_1" index="1" disallow="pedestrian" speed="13.89" length="69.33" shape="-100.00,-4.80 -35.21,-4.80"/>
        <lane id="E0_2" index="2" disallow="pedestrian" speed="13.89" length="69.33" shape="-100.00,-1.60 -35.21,-1.60"/>
    </edge>
    <edge id="E1" from="J4" to="J9" priority="-1">
        <lane id="E1_0" index="0" allow="pedestrian" speed="13.89" length="69.33" shape="-8.00,100.00 -8.00,35.21"/>
        <lane id="E1_1" index="1" disallow="pedestrian" speed="13.89" length="69.33" shape="-4.80,100.00 -4.80,35.21"/>
        <lane id="E1_2" index="2" disallow="pedestrian" speed="13.89" length="69.33" shape="-1.60,100.00 -1.60,35.21"/>
    </edge>
    <edge id="E2" from="J3" to="J10" priority="-1">
        <lane id="E2_0" index="0" allow="pedestrian" speed="13.89" length="69.33" shape="100.00,8.00 35.21,8.00"/>
        <lane id="E2_1" index="1" disallow="pedestrian" speed="13.89" length="69.33" shape="100.00,4.80 35.21,4.80"/>
        <lane id="E2_2" index="2" disallow="pedestrian" speed="13.89" length="69.33" shape="100.00,1.60 35.21,1.60"/>
    </edge>
    <edge id="E3" from="J6" to="J11" priority="-1">
        <lane id="E3_0" index="0" allow="pedestrian" speed="13.89" length="69.33" shape="8.00,-100.00 8.00,-35.21"/>
        <lane id="E3_1" index="1" disallow="pedestrian" speed="13.89" length="69.33" shape="4.80,-100.00 4.80,-35.21"/>
        <lane id="E3_2" index="2" disallow="pedestrian" speed="13.89" length="69.33" shape="1.60,-100.00 1.60,-35.21"/>
    </edge>
    <edge id="E4" from="J8" to="J11" priority="-1" shape="-25.00,0.00 -24.96,-2.04 -24.83,-3.99 -24.61,-5.86 -24.31,-7.64 -23.91,-9.33 -23.44,-10.94 -22.87,-12.46 -22.22,-13.89 -21.48,-15.23 -20.66,-16.49 -19.75,-17.66 -18.75,-18.75 -17.66,-19.75 -16.49,-20.66 -15.23,-21.48 -13.89,-22.22 -12.46,-22.87 -10.94,-23.44 -9.33,-23.91 -7.64,-24.31 -5.86,-24.61 -3.99,-24.83 -2.04,-24.96 0.00,-25.00">
        <lane id="E4_0" index="0" allow="pedestrian" speed="13.89" length="44.62" shape="-31.73,-11.02 -31.65,-11.37 -31.04,-13.47 -30.27,-15.52 -29.37,-17.48 -28.34,-19.35 -27.18,-21.14 -25.87,-22.83 -24.41,-24.41 -22.83,-25.87 -21.14,-27.18 -19.35,-28.34 -17.48,-29.37 -15.52,-30.27 -13.47,-31.04 -11.37,-31.65 -11.02,-31.73"/>
        <lane id="E4_1" index="1" disallow="pedestrian" speed="13.89" length="44.62" shape="-28.44,-10.94 -28.00,-12.46 -27.31,-14.30 -26.51,-16.05 -25.60,-17.70 -24.57,-19.28 -23.42,-20.76 -22.15,-22.15 -20.76,-23.42 -19.28,-24.57 -17.70,-25.60 -16.05,-26.51 -14.30,-27.31 -12.46,-28.00 -10.94,-28.44"/>
        <lane id="E4_2" index="2" disallow="pedestrian" speed="13.89" length="44.62" shape="-25.13,-10.86 -24.96,-11.45 -24.35,-13.07 -23.65,-14.61 -22.85,-16.05 -21.96,-17.42 -20.97,-18.69 -19.88,-19.88 -18.69,-20.97 -17.42,-21.96 -16.05,-22.85 -14.61,-23.65 -13.07,-24.35 -11.45,-24.96 -10.86,-25.13"/>
    </edge>
    <edge id="E5" from="J11" to="J10" priority="-1" shape="0.00,-25.00 2.04,-24.96 3.99,-24.83 5.86,-24.61 7.64,-24.31 9.33,-23.91 10.94,-23.44 12.46,-22.87 13.89,-22.22 15.23,-21.48 16.49,-20.66 17.66,-19.75 18.75,-18.75 19.75,-17.66 20.66,-16.49 21.48,-15.23 22.22,-13.89 22.87,-12.46 23.44,-10.94 23.91,-9.33 24.31,-7.64 24.61,-5.86 24.83,-3.99 24.96,-2.04 25.00,0.00">
        <lane id="E5_0" index="0" allow="pedestrian" speed="13.89" length="44.62" shape="11.02,-31.73 11.37,-31.65 13.47,-31.04 15.52,-30.27 17.48,-29.37 19.35,-28.34 21.14,-27.18 22.83,-25.87 24.41,-24.41 25.87,-22.83 27.18,-21.14 28.34,-19.35 29.37,-17.48 30.27,-15.52 31.04,-13.47 31.65,-11.37 31.73,-11.02"/>
        <lane id="E5_1" index="1" disallow="pedestrian" speed="13.89" length="44.62" shape="10.94,-28.44 12.46,-28.00 14.30,-27.31 16.05,-26.51 17.70,-25.60 19.28,-24.57 20.76,-23.42 22.15,-22.15 23.42,-20.76 24.57,-19.28 25.60,-17.70 26.51,-16.05 27.31,-14.30 28.00,-12.46 28.44,-10.94"/>
        <lane id="E5_2" index="2" disallow="pedestrian" speed="13.89" length="44.62" shape="10.86,-25.13 11.45,-24.96 13.07,-24.35 14.61,-23.65 16.05,-22.85 17.42,-21.96 18.69,-20.97 19.88,-19.88 20.97,-18.69 21.96,-17.42 22.85,-16.05 23.65,-14.61 24.35,-13.07 24.96,-11.45 25.13,-10.86"/>
    </edge>
    <edge id="E6" from="J10" to="J9" priority="-1" shape="25.00,0.00 24.96,2.04 24.83,3.99 24.61,5.86 24.31,7.64 23.91,9.33 23.44,10.94 22.87,12.46 22.22,13.89 21.48,15.23 20.66,16.49 19.75,17.66 18.75,18.75 17.66,19.75 16.49,20.66 15.23,21.48 13.89,22.22 12.46,22.87 10.94,23.44 9.33,23.91 7.64,24.31 5.86,24.61 3.99,24.83 2.04,24.96 0.00,25.00">
        <lane id="E6_0" index="0" allow="pedestrian" speed="13.89" length="44.62" shape="31.73,11.02 31.65,11.37 31.04,13.47 30.27,15.52 29.37,17.48 28.34,19.35 27.18,21.14 25.87,22.83 24.41,24.41 22.83,25.87 21.14,27.18 19.35,28.34 17.48,29.37 15.52,30.27 13.47,31.04 11.37,31.65 11.02,31.73"/>
        <lane id="E6_1" index="1" disallow="pedestrian" speed="13.89" length="44.62" shape="28.44,10.94 28.00,12.46 27.31,14.30 26.51,16.05 25.60,17.70 24.57,19.28 23.42,20.76 22.15,22.15 20.76,23.42 19.28,24.57 17.70,25.60 16.05,26.51 14.30,27.31 12.46,28.00 10.94,28.44"/>
        <lane id="E6_2" index="2" disallow="pedestrian" speed="13.89" length="44.62" shape="25.13,10.86 24.96,11.45 24.35,13.07 23.65,14.61 22.85,16.05 21.96,17.42 20.97,18.69 19.88,19.88 18.69,20.97 17.42,21.96 16.05,22.85 14.61,23.65 13.07,24.35 11.45,24.96 10.86,25.13"/>
    </edge>
    <edge id="E7" from="J9" to="J8" priority="-1" shape="0.00,25.00 -2.04,24.96 -3.99,24.83 -5.86,24.61 -7.64,24.31 -9.33,23.91 -10.94,23.44 -12.46,22.87 -13.89,22.22 -15.23,21.48 -16.49,20.66 -17.66,19.75 -18.75,18.75 -19.75,17.66 -20.66,16.49 -21.48,15.23 -22.22,13.89 -22.87,12.46 -23.44,10.94 -23.91,9.33 -24.31,7.64 -24.61,5.86 -24.83,3.99 -24.96,2.04 -25.00,0.00">
        <lane id="E7_0" index="0" allow="pedestrian" speed="13.89" length="44.62" shape="-11.02,31.73 -11.37,31.65 -13.47,31.04 -15.52,30.27 -17.48,29.37 -19.35,28.34 -21.14,27.18 -22.83,25.87 -24.41,24.41 -25.87,22.83 -27.18,21.14 -28.34,19.35 -29.37,17.48 -30.27,15.52 -31.04,13.47 -31.65,11.37 -31.73,11.02"/>
        <lane id="E7_1" index="1" disallow="pedestrian" speed="13.89" length="44.62" shape="-10.94,28.44 -12.46,28.00 -14.30,27.31 -16.05,26.51 -17.70,25.60 -19.28,24.57 -20.76,23.42 -22.15,22.15 -23.42,20.76 -24.57,19.28 -25.60,17.70 -26.51,16.05 -27.31,14.30 -28.00,12.46 -28.44,10.94"/>
        <lane id="E7_2" index="2" disallow="pedestrian" speed="13.89" length="44.62" shape="-10.86,25.13 -11.45,24.96 -13.07,24.35 -14.61,23.65 -16.05,22.85 -17.42,21.96 -18.69,20.97 -19.88,19.88 -20.97,18.69 -21.96,17.42 -22.85,16.05 -23.65,14.61 -24.35,13.07 -24.96,11.45 -25.13,10.86"/>
    </edge>

    <junction id="J0" type="dead_end" x="-200.00" y="0.00" incLanes="-W_0 -W_1 -W_2" intLanes="" shape="-200.00,0.00 -200.00,9.60 -200.00,0.00"/>
    <junction id="J1" type="priority" x="-100.00" y="0.00" incLanes="-E0_0 -E0_1 -E0_2 +W_0 +W_1 +W_2" intLanes="" shape="-100.00,9.60 -100.00,-9.60 -100.00,9.60">
        <request index="0" response="0000" foes="0000"/>
        <request index="1" response="0000" foes="0000"/>
        <request index="2" response="0000" foes="0000"/>
        <request index="3" response="0000" foes="0000"/>
    </junction>
    <junction id="J10" type="priority" x="25.00" y="0.00" incLanes="E2_0 E2_1 E2_2 E5_0 E5_1 E5_2" intLanes="" shape="35.21,9.60 35.21,-9.60 34.34,-9.76 34.00,-9.96 33.72,-10.25 33.51,-10.61 33.36,-11.06 23.48,-10.81 24.74,-6.33 25.50,-2.90 25.75,-0.00 25.50,2.90 24.74,6.33 23.48,10.81 33.36,11.06 33.72,10.25 34.00,9.96 34.34,9.76 34.74,9.64">
        <request index="0" response="010000" foes="010000"/>
        <request index="1" response="110000" foes="110000"/>
        <request index="2" response="000000" foes="000000"/>
        <request index="3" response="000000" foes="000000"/>
        <request index="4" response="000000" foes="000011"/>
        <request index="5" response="000000" foes="000010"/>
    </junction>
    <junction id="J11" type="priority" x="0.00" y="-25.00" incLanes="E3_0 E3_1 E3_2 E4_0 E4_1 E4_2" intLanes="" shape="10.81,-23.48 11.06,-33.36 10.25,-33.72 9.96,-34.00 9.76,-34.34 9.64,-34.74 9.60,-35.21 -9.60,-35.21 -9.76,-34.34 -9.96,-34.00 -10.25,-33.72 -10.61,-33.51 -11.06,-33.36 -10.81,-23.48 -6.33,-24.74 -2.90,-25.50 -0.00,-25.75 2.90,-25.50 6.33,-24.74">
        <request index="0" response="010000" foes="010000"/>
        <request index="1" response="110000" foes="110000"/>
        <request index="2" response="000000" foes="000000"/>
        <request index="3" response="000000" foes="000000"/>
        <request index="4" response="000000" foes="000011"/>
        <request index="5" response="000000" foes="000010"/>
    </junction>
    <junction id="J2" type="dead_end" x="200.00" y="0.00" incLanes="-E_0 -E_1 -E_2" intLanes="" shape="200.00,0.00 200.00,-9.60 200.00,0.00"/>
    <junction id="J3" type="priority" x="100.00" y="0.00" incLanes="+E_0 +E_1 +E_2 -E2_0 -E2_1 -E2_2" intLanes="" shape="100.00,9.60 100.00,-9.60 100.00,9.60">
        <request index="0" response="0000" foes="0000"/>
        <request index="1" response="0000" foes="0000"/>
        <request index="2" response="0000" foes="0000"/>
        <request index="3" response="0000" foes="0000"/>
    </junction>
    <junction id="J4" type="priority" x="0.00" y="100.00" incLanes="+N_0 +N_1 +N_2 -E1_0 -E1_1 -E1_2" intLanes="" shape="-9.60,100.00 9.60,100.00 -9.60,100.00">
        <request index="0" response="0000" foes="0000"/>
        <request index="1" response="0000" foes="0000"/>
        <request index="2" response="0000" foes="0000"/>
        <request index="3" response="0000" foes="0000"/>
    </junction>
    <junction id="J5" type="dead_end" x="0.00" y="200.00" incLanes="-N_0 -N_1 -N_2" intLanes="" shape="0.00,200.00 9.60,200.00 0.00,200.00"/>
    <junction id="J6" type="priority" x="0.00" y="-100.00" incLanes="-E3_0 -E3_1 -E3_2 +S_0 +S_1 +S_2" intLanes="" shape="-9.60,-100.00 9.60,-100.00 -9.60,-100.00">
        <request index="0" response="0000" foes="0000"/>
        <request index="1" response="0000" foes="0000"/>
        <request index="2" response="0000" foes="0000"/>
        <request index="3" response="0000" foes="0000"/>
    </junction>
    <junction id="J7" type="dead_end" x="0.00" y="-200.00" incLanes="-S_0 -S_1 -S_2" intLanes="" shape="0.00,-200.00 -9.60,-200.00 0.00,-200.00"/>
    <junction id="J8" type="priority" x="-25.00" y="0.00" incLanes="E7_0 E7_1 E7_2 E0_0 E0_1 E0_2" intLanes="" shape="-33.36,11.06 -23.48,10.81 -24.74,6.33 -25.50,2.90 -25.75,0.00 -25.50,-2.90 -24.74,-6.33 -23.48,-10.81 -33.36,-11.06 -33.72,-10.25 -34.00,-9.96 -34.34,-9.76 -34.74,-9.64 -35.21,-9.60 -35.21,9.60 -34.34,9.76 -34.00,9.96 -33.72,10.25 -33.51,10.61">
        <request index="0" response="000000" foes="000000"/>
        <request index="1" response="000000" foes="000000"/>
        <request index="2" response="000000" foes="110000"/>
        <request index="3" response="000000" foes="100000"/>
        <request index="4" response="000100" foes="000100"/>
        <request index="5" response="001100" foes="001100"/>
    </junction>
    <junction id="J9" type="priority" x="0.00" y="25.00" incLanes="E1_0 E1_1 E1_2 E6_0 E6_1 E6_2" intLanes="" shape="-9.60,35.21 9.60,35.21 9.76,34.34 9.96,34.00 10.25,33.72 10.61,33.51 11.06,33.36 10.81,23.48 6.33,24.74 2.90,25.50 0.00,25.75 -2.90,25.50 -6.33,24.74 -10.81,23.48 -11.06,33.36 -10.25,33.72 -9.96,34.00 -9.76,34.34 -9.64,34.74">
        <request index="0" response="010000" foes="010000"/>
        <request index="1" response="110000" foes="110000"/>
        <request index="2" response="000000" foes="000000"/>
        <request index="3" response="000000" foes="000000"/>
        <request index="4" response="000000" foes="000011"/>
        <request index="5" response="000000" foes="000010"/>
    </junction>

    <connection from="+E" to="E2" fromLane="1" toLane="1" dir="s" state="M"/>
    <connection from="+E" to="E2" fromLane="2" toLane="2" dir="s" state="M"/>
    <connection from="+N" to="E1" fromLane="1" toLane="1" dir="s" state="M"/>
    <connection from="+N" to="E1" fromLane="2" toLane="2" dir="s" state="M"/>
    <connection from="+S" to="E3" fromLane="1" toLane="1" dir="s" state="M"/>
    <connection from="+S" to="E3" fromLane="2" toLane="2" dir="s" state="M"/>
    <connection from="+W" to="E0" fromLane="1" toLane="1" dir="s" state="M"/>
    <connection from="+W" to="E0" fromLane="2" toLane="2" dir="s" state="M"/>
    <connection from="-E0" to="-W" fromLane="1" toLane="1" dir="s" state="M"/>
    <connection from="-E0" to="-W" fromLane="2" toLane="2" dir="s" state="M"/>
    <connection from="-E1" to="-N" fromLane="1" toLane="1" dir="s" state="M"/>
    <connection from="-E1" to="-N" fromLane="2" toLane="2" dir="s" state="M"/>
    <connection from="-E2" to="-E" fromLane="1" toLane="1" dir="s" state="M"/>
    <connection from="-E2" to="-E" fromLane="2" toLane="2" dir="s" state="M"/>
    <connection from="-E3" to="-S" fromLane="1" toLane="1" dir="s" state="M"/>
    <connection from="-E3" to="-S" fromLane="2" toLane="2" dir="s" state="M"/>
    <connection from="E0" to="E4" fromLane="1" toLane="1" dir="r" state="m" visibility="9.00"/>
    <connection from="E0" to="E4" fromLane="2" toLane="2" dir="r" state="m" visibility="9.00"/>
    <connection from="E1" to="E7" fromLane="1" toLane="1" dir="r" state="m" visibility="9.00"/>
    <connection from="E1" to="E7" fromLane="2" toLane="2" dir="r" state="m" visibility="9.00"/>
    <connection from="E2" to="E6" fromLane="1" toLane="1" dir="r" state="m" visibility="9.00"/>
    <connection from="E2" to="E6" fromLane="2" toLane="2" dir="r" state="m" visibility="9.00"/>
    <connection from="E3" to="E5" fromLane="1" toLane="1" dir="r" state="m" visibility="9.00"/>
    <connection from="E3" to="E5" fromLane="2" toLane="2" dir="r" state="m" visibility="9.00"/>
    <connection from="E4" to="-E3" fromLane="1" toLane="1" dir="r" state="M"/>
    <connection from="E4" to="-E3" fromLane="1" toLane="2" dir="r" state="M"/>
    <connection from="E4" to="E5" fromLane="1" toLane="1" dir="s" state="M"/>
    <connection from="E4" to="E5" fromLane="2" toLane="2" dir="s" state="M"/>
    <connection from="E5" to="-E2" fromLane="1" toLane="1" dir="r" state="M"/>
    <connection from="E5" to="-E2" fromLane="1" toLane="2" dir="r" state="M"/>
    <connection from="E5" to="E6" fromLane="1" toLane="1" dir="s" state="M"/>
    <connection from="E5" to="E6" fromLane="2" toLane="2" dir="s" state="M"/>
    <connection from="E6" to="-E1" fromLane="1" toLane="1" dir="r" state="M"/>
    <connection from="E6" to="-E1" fromLane="1" toLane="2" dir="r" state="M"/>
    <connection from="E6" to="E7" fromLane="1" toLane="1" dir="s" state="M"/>
    <connection from="E6" to="E7" fromLane="2" toLane="2" dir="s" state="M"/>
    <connection from="E7" to="-E0" fromLane="1" toLane="1" dir="r" state="M"/>
    <connection from="E7" to="-E0" fromLane="1" toLane="2" dir="r" state="M"/>
    <connection from="E7" to="E4" fromLane="1" toLane="1" dir="s" state="M"/>
    <connection from="E7" to="E4" fromLane="2" toLane="2" dir="s" state="M"/>

    <roundabout nodes="J10 J11 J8 J9" edges="E4 E5 E6 E7"/>

</net>
