<?xml version="1.0" encoding="UTF-8"?>

<!-- generated on 2023-04-10 20:19:52 by Eclipse SUMO netedit Version 1.15.0
<configuration xmlns:xsi="http://www.w3.org/2001/XMLSchema-instance" xsi:noNamespaceSchemaLocation="http://sumo.dlr.de/xsd/netconvertConfiguration.xsd">

    <input>
        <sumo-net-file value="Z:\Users\708891\Desktop\AP research\Simulations\singlePointUrban.net.xml"/>
    </input>

    <output>
        <output-file value="Z:\Users\708891\Desktop\AP research\Simulations\singlePointUrban.net.xml"/>
    </output>

    <processing>
        <geometry.min-radius.fix.railways value="false"/>
        <geometry.max-grade.fix value="false"/>
        <offset.disable-normalization value="true"/>
        <lefthand value="0"/>
    </processing>

    <junctions>
        <no-internal-links value="true"/>
        <no-turnarounds value="true"/>
        <junctions.corner-detail value="5"/>
        <junctions.limit-turn-speed value="5.50"/>
        <rectangular-lane-cut value="0"/>
    </junctions>

    <pedestrian>
        <walkingareas value="0"/>
    </pedestrian>

    <netedit>
        <route-files value="Z:\Users\708891\Desktop\AP research\Simulations\unifiedDistribution.rou.xml"/>
    </netedit>

</configuration>
-->

<net version="1.9" junctionCornerDetail="5" limitTurnSpeed="5.50" xmlns:xsi="http://www.w3.org/2001/XMLSchema-instance" xsi:noNamespaceSchemaLocation="http://sumo.dlr.de/xsd/net_file.xsd">

    <location netOffset="0.00,0.00" convBoundary="-200.00,-200.00,200.00,200.00" origBoundary="-10000000000.00,-10000000000.00,10000000000.00,10000000000.00" projParameter="!"/>

    <edge id="+E" from="J2" to="J3" priority="-1">
        <lane id="+E_0" index="0" allow="pedestrian" speed="13.89" length="100.00" shape="200.00,8.00 104.16,8.00"/>
        <lane id="+E_1" index="1" disallow="pedestrian" speed="13.89" length="100.00" shape="200.00,4.80 104.16,4.80"/>
        <lane id="+E_2" index="2" disallow="pedestrian" speed="13.89" length="100.00" shape="200.00,1.60 104.16,1.60"/>
    </edge>
    <edge id="+N" from="J5" to="J4" priority="-1">
        <lane id="+N_0" index="0" allow="pedestrian" speed="13.89" length="100.00" shape="-8.00,200.00 -8.00,100.00"/>
        <lane id="+N_1" index="1" disallow="pedestrian" speed="13.89" length="100.00" shape="-4.80,200.00 -4.80,100.00"/>
        <lane id="+N_2" index="2" disallow="pedestrian" speed="13.89" length="100.00" shape="-1.60,200.00 -1.60,100.00"/>
    </edge>
    <edge id="+S" from="J7" to="J6" priority="-1">
        <lane id="+S_0" index="0" allow="pedestrian" speed="13.89" length="100.00" shape="8.00,-200.00 8.00,-100.00"/>
        <lane id="+S_1" index="1" disallow="pedestrian" speed="13.89" length="100.00" shape="4.80,-200.00 4.80,-100.00"/>
        <lane id="+S_2" index="2" disallow="pedestrian" speed="13.89" length="100.00" shape="1.60,-200.00 1.60,-100.00"/>
    </edge>
    <edge id="+W" from="J0" to="J1" priority="-1">
        <lane id="+W_0" index="0" allow="pedestrian" speed="13.89" length="100.00" shape="-200.00,-8.00 -104.16,-8.00"/>
        <lane id="+W_1" index="1" disallow="pedestrian" speed="13.89" length="100.00" shape="-200.00,-4.80 -104.16,-4.80"/>
        <lane id="+W_2" index="2" disallow="pedestrian" speed="13.89" length="100.00" shape="-200.00,-1.60 -104.16,-1.60"/>
    </edge>
    <edge id="-E" from="J3" to="J2" priority="-1">
        <lane id="-E_0" index="0" allow="pedestrian" speed="13.89" length="100.00" shape="104.16,-8.00 200.00,-8.00"/>
        <lane id="-E_1" index="1" disallow="pedestrian" speed="13.89" length="100.00" shape="104.16,-4.80 200.00,-4.80"/>
        <lane id="-E_2" index="2" disallow="pedestrian" speed="13.89" length="100.00" shape="104.16,-1.60 200.00,-1.60"/>
    </edge>
    <edge id="-E1" from="J8" to="J6" priority="-1">
        <lane id="-E1_0" index="0" allow="pedestrian" speed="13.89" length="25.00" shape="-8.00,-80.48 -8.00,-100.00"/>
        <lane id="-E1_1" index="1" disallow="pedestrian" speed="13.89" length="25.00" shape="-4.80,-80.48 -4.80,-100.00"/>
        <lane id="-E1_2" index="2" disallow="pedestrian" speed="13.89" length="25.00" shape="-1.60,-80.48 -1.60,-100.00"/>
    </edge>
    <edge id="-E2" from="J9" to="J4" priority="-1">
        <lane id="-E2_0" index="0" allow="pedestrian" speed="13.89" length="25.00" shape="8.00,80.48 8.00,100.00"/>
        <lane id="-E2_1" index="1" disallow="pedestrian" speed="13.89" length="25.00" shape="4.80,80.48 4.80,100.00"/>
        <lane id="-E2_2" index="2" disallow="pedestrian" speed="13.89" length="25.00" shape="1.60,80.48 1.60,100.00"/>
    </edge>
    <edge id="-E29" from="J1" to="J3" priority="-1">
        <lane id="-E29_0" index="0" allow="pedestrian" speed="13.89" length="200.00" shape="-82.50,-8.00 82.50,-8.00"/>
        <lane id="-E29_1" index="1" disallow="pedestrian" speed="13.89" length="200.00" shape="-82.50,-4.80 82.50,-4.80"/>
        <lane id="-E29_2" index="2" disallow="pedestrian" speed="13.89" length="200.00" shape="-82.50,-1.60 82.50,-1.60"/>
    </edge>
    <edge id="-E7" from="J11" to="J9" priority="-1">
        <lane id="-E7_0" index="0" allow="pedestrian" speed="13.89" length="75.00" shape="8.00,24.68 8.00,63.90"/>
        <lane id="-E7_1" index="1" disallow="pedestrian" speed="13.89" length="75.00" shape="4.80,24.68 4.80,63.90"/>
        <lane id="-E7_2" index="2" disallow="pedestrian" speed="13.89" length="75.00" shape="1.60,24.68 1.60,63.90"/>
    </edge>
    <edge id="-E8" from="J8" to="J11" priority="-1">
        <lane id="-E8_0" index="0" allow="pedestrian" speed="13.89" length="75.00" shape="8.00,-63.90 8.00,-24.68"/>
        <lane id="-E8_1" index="1" disallow="pedestrian" speed="13.89" length="75.00" shape="4.80,-63.90 4.80,-24.68"/>
        <lane id="-E8_2" index="2" disallow="pedestrian" speed="13.89" length="75.00" shape="1.60,-63.90 1.60,-24.68"/>
    </edge>
    <edge id="-N" from="J4" to="J5" priority="-1">
        <lane id="-N_0" index="0" allow="pedestrian" speed="13.89" length="100.00" shape="8.00,100.00 8.00,200.00"/>
        <lane id="-N_1" index="1" disallow="pedestrian" speed="13.89" length="100.00" shape="4.80,100.00 4.80,200.00"/>
        <lane id="-N_2" index="2" disallow="pedestrian" speed="13.89" length="100.00" shape="1.60,100.00 1.60,200.00"/>
    </edge>
    <edge id="-S" from="J6" to="J7" priority="-1">
        <lane id="-S_0" index="0" allow="pedestrian" speed="13.89" length="100.00" shape="-8.00,-100.00 -8.00,-200.00"/>
        <lane id="-S_1" index="1" disallow="pedestrian" speed="13.89" length="100.00" shape="-4.80,-100.00 -4.80,-200.00"/>
        <lane id="-S_2" index="2" disallow="pedestrian" speed="13.89" length="100.00" shape="-1.60,-100.00 -1.60,-200.00"/>
    </edge>
    <edge id="-W" from="J1" to="J0" priority="-1">
        <lane id="-W_0" index="0" allow="pedestrian" speed="13.89" length="100.00" shape="-104.16,8.00 -200.00,8.00"/>
        <lane id="-W_1" index="1" disallow="pedestrian" speed="13.89" length="100.00" shape="-104.16,4.80 -200.00,4.80"/>
        <lane id="-W_2" index="2" disallow="pedestrian" speed="13.89" length="100.00" shape="-104.16,1.60 -200.00,1.60"/>
    </edge>
    <edge id="E1" from="J6" to="J8" priority="-1">
        <lane id="E1_0" index="0" allow="pedestrian" speed="13.89" length="25.00" shape="8.00,-100.00 8.00,-80.48"/>
        <lane id="E1_1" index="1" disallow="pedestrian" speed="13.89" length="25.00" shape="4.80,-100.00 4.80,-80.48"/>
        <lane id="E1_2" index="2" disallow="pedestrian" speed="13.89" length="25.00" shape="1.60,-100.00 1.60,-80.48"/>
    </edge>
    <edge id="E17" from="J15" to="J9" priority="-1">
        <lane id="E17_0" index="0" allow="pedestrian" speed="13.89" length="53.03" shape="35.31,51.01 16.32,70.00"/>
        <lane id="E17_1" index="1" disallow="pedestrian" speed="13.89" length="53.03" shape="33.05,48.74 14.05,67.73"/>
        <lane id="E17_2" index="2" disallow="pedestrian" speed="13.89" length="53.03" shape="30.78,46.48 11.79,65.47"/>
    </edge>
    <edge id="E18" from="J9" to="J16" priority="-1">
        <lane id="E18_0" index="0" allow="pedestrian" speed="13.89" length="53.03" shape="-16.32,70.00 -35.31,51.01"/>
        <lane id="E18_1" index="1" disallow="pedestrian" speed="13.89" length="53.03" shape="-14.05,67.73 -33.05,48.74"/>
        <lane id="E18_2" index="2" disallow="pedestrian" speed="13.89" length="53.03" shape="-11.79,65.47 -30.78,46.48"/>
    </edge>
    <edge id="E19" from="J17" to="J8" priority="-1">
        <lane id="E19_0" index="0" allow="pedestrian" speed="13.89" length="53.03" shape="-35.31,-51.01 -16.32,-70.00"/>
        <lane id="E19_1" index="1" disallow="pedestrian" speed="13.89" length="53.03" shape="-33.05,-48.74 -14.05,-67.73"/>
        <lane id="E19_2" index="2" disallow="pedestrian" speed="13.89" length="53.03" shape="-30.78,-46.48 -11.79,-65.47"/>
    </edge>
    <edge id="E2" from="J4" to="J9" priority="-1">
        <lane id="E2_0" index="0" allow="pedestrian" speed="13.89" length="25.00" shape="-8.00,100.00 -8.00,80.48"/>
        <lane id="E2_1" index="1" disallow="pedestrian" speed="13.89" length="25.00" shape="-4.80,100.00 -4.80,80.48"/>
        <lane id="E2_2" index="2" disallow="pedestrian" speed="13.89" length="25.00" shape="-1.60,100.00 -1.60,80.48"/>
    </edge>
    <edge id="E20" from="J8" to="J18" priority="-1">
        <lane id="E20_0" index="0" allow="pedestrian" speed="13.89" length="53.03" shape="16.32,-70.00 35.31,-51.01"/>
        <lane id="E20_1" index="1" disallow="pedestrian" speed="13.89" length="53.03" shape="14.05,-67.73 33.05,-48.74"/>
        <lane id="E20_2" index="2" disallow="pedestrian" speed="13.89" length="53.03" shape="11.79,-65.47 30.78,-46.48"/>
    </edge>
    <edge id="E21" from="J18" to="J3" priority="-1">
        <lane id="E21_0" index="0" allow="pedestrian" speed="13.89" length="72.89" shape="43.92,-42.98 86.83,-17.23"/>
        <lane id="E21_1" index="1" disallow="pedestrian" speed="13.89" length="72.89" shape="42.27,-40.24 85.18,-14.49"/>
        <lane id="E21_2" index="2" disallow="pedestrian" speed="13.89" length="72.89" shape="40.62,-37.49 83.54,-11.74"/>
    </edge>
    <edge id="E22" from="J3" to="J15" priority="-1">
        <lane id="E22_0" index="0" allow="pedestrian" speed="13.89" length="72.89" shape="86.83,17.23 43.92,42.98"/>
        <lane id="E22_1" index="1" disallow="pedestrian" speed="13.89" length="72.89" shape="85.18,14.49 42.27,40.24"/>
        <lane id="E22_2" index="2" disallow="pedestrian" speed="13.89" length="72.89" shape="83.54,11.74 40.62,37.49"/>
    </edge>
    <edge id="E23" from="J1" to="J17" priority="-1">
        <lane id="E23_0" index="0" allow="pedestrian" speed="13.89" length="72.89" shape="-86.83,-17.23 -43.92,-42.98"/>
        <lane id="E23_1" index="1" disallow="pedestrian" speed="13.89" length="72.89" shape="-85.18,-14.49 -42.27,-40.24"/>
        <lane id="E23_2" index="2" disallow="pedestrian" speed="13.89" length="72.89" shape="-83.54,-11.74 -40.62,-37.49"/>
    </edge>
    <edge id="E24" from="J16" to="J1" priority="-1">
        <lane id="E24_0" index="0" allow="pedestrian" speed="13.89" length="72.89" shape="-43.92,42.98 -86.83,17.23"/>
        <lane id="E24_1" index="1" disallow="pedestrian" speed="13.89" length="72.89" shape="-42.27,40.24 -85.18,14.49"/>
        <lane id="E24_2" index="2" disallow="pedestrian" speed="13.89" length="72.89" shape="-40.62,37.49 -83.54,11.74"/>
    </edge>
    <edge id="E25" from="J17" to="J11" priority="-1">
        <lane id="E25_0" index="0" allow="pedestrian" speed="13.89" length="53.03" shape="-30.78,-42.10 -11.79,-23.11"/>
        <lane id="E25_1" index="1" disallow="pedestrian" speed="13.89" length="53.03" shape="-33.05,-39.83 -14.05,-20.84"/>
        <lane id="E25_2" index="2" disallow="pedestrian" speed="13.89" length="53.03" shape="-35.31,-37.57 -16.32,-18.58"/>
    </edge>
    <edge id="E27" from="J15" to="J11" priority="-1">
        <lane id="E27_0" index="0" allow="pedestrian" speed="13.89" length="53.03" shape="30.78,42.10 11.79,23.11"/>
        <lane id="E27_1" index="1" disallow="pedestrian" speed="13.89" length="53.03" shape="33.05,39.83 14.05,20.84"/>
        <lane id="E27_2" index="2" disallow="pedestrian" speed="13.89" length="53.03" shape="35.31,37.57 16.32,18.58"/>
    </edge>
    <edge id="E28" from="J11" to="J16" priority="-1">
        <lane id="E28_0" index="0" allow="pedestrian" speed="13.89" length="53.03" shape="-11.79,23.11 -30.78,42.10"/>
        <lane id="E28_1" index="1" disallow="pedestrian" speed="13.89" length="53.03" shape="-14.05,20.84 -33.05,39.83"/>
        <lane id="E28_2" index="2" disallow="pedestrian" speed="13.89" length="53.03" shape="-16.32,18.58 -35.31,37.57"/>
    </edge>
    <edge id="E29" from="J3" to="J1" priority="-1">
        <lane id="E29_0" index="0" allow="pedestrian" speed="13.89" length="200.00" shape="82.50,8.00 -82.50,8.00"/>
        <lane id="E29_1" index="1" disallow="pedestrian" speed="13.89" length="200.00" shape="82.50,4.80 -82.50,4.80"/>
        <lane id="E29_2" index="2" disallow="pedestrian" speed="13.89" length="200.00" shape="82.50,1.60 -82.50,1.60"/>
    </edge>
    <edge id="E30" from="J11" to="J18" priority="-1">
        <lane id="E30_0" index="0" allow="pedestrian" speed="13.89" length="53.03" shape="11.79,-23.11 30.78,-42.10"/>
        <lane id="E30_1" index="1" disallow="pedestrian" speed="13.89" length="53.03" shape="14.05,-20.84 33.05,-39.83"/>
        <lane id="E30_2" index="2" disallow="pedestrian" speed="13.89" length="53.03" shape="16.32,-18.58 35.31,-37.57"/>
    </edge>
    <edge id="E7" from="J9" to="J11" priority="-1">
        <lane id="E7_0" index="0" allow="pedestrian" speed="13.89" length="75.00" shape="-8.00,63.90 -8.00,24.68"/>
        <lane id="E7_1" index="1" disallow="pedestrian" speed="13.89" length="75.00" shape="-4.80,63.90 -4.80,24.68"/>
        <lane id="E7_2" index="2" disallow="pedestrian" speed="13.89" length="75.00" shape="-1.60,63.90 -1.60,24.68"/>
    </edge>
    <edge id="E8" from="J11" to="J8" priority="-1">
        <lane id="E8_0" index="0" allow="pedestrian" speed="13.89" length="75.00" shape="-8.00,-24.68 -8.00,-63.90"/>
        <lane id="E8_1" index="1" disallow="pedestrian" speed="13.89" length="75.00" shape="-4.80,-24.68 -4.80,-63.90"/>
        <lane id="E8_2" index="2" disallow="pedestrian" speed="13.89" length="75.00" shape="-1.60,-24.68 -1.60,-63.90"/>
    </edge>

    <tlLogic id="J1" type="static" programID="0" offset="0">
        <phase duration="42" state="GGgGGGGG"/>
    </tlLogic>
    <tlLogic id="J11" type="static" programID="0" offset="0">
        <phase duration="22" state="GGrrrGGGrrrG"/>
        <phase duration="3"  state="yyrrrgyyrrrg"/>
        <phase duration="22" state="rrrGGGrrrGGG"/>
        <phase duration="3"  state="rrryygrrryyg"/>
        <phase duration="22" state="rrGrrGrrGrrG"/>
        <phase duration="3"  state="rryrrgrryrrg"/>
    </tlLogic>
    <tlLogic id="J16" type="static" programID="0" offset="0">
        <phase duration="42" state="GgGG"/>
        <phase duration="3"  state="yyrr"/>
        <phase duration="42" state="rrgG"/>
        <phase duration="3"  state="rryy"/>
    </tlLogic>
    <tlLogic id="J18" type="static" programID="0" offset="0">
        <phase duration="42" state="GgGG"/>
        <phase duration="3"  state="yyrr"/>
        <phase duration="42" state="rrgG"/>
        <phase duration="3"  state="rryy"/>
    </tlLogic>
    <tlLogic id="J3" type="static" programID="0" offset="0">
        <phase duration="42" state="GGGGGGgG"/>
    </tlLogic>
    <tlLogic id="J8" type="static" programID="0" offset="0">
        <phase duration="42" state="gGGGGGGG"/>
        <phase duration="3"  state="yyyyyyrr"/>
        <phase duration="42" state="rrGGGGGg"/>
        <phase duration="3"  state="rryyyyyy"/>
    </tlLogic>
    <tlLogic id="J9" type="static" programID="0" offset="0">
        <phase duration="42" state="GGGGGGgG"/>
    </tlLogic>

    <junction id="J0" type="dead_end" x="-200.00" y="0.00" incLanes="-W_0 -W_1 -W_2" intLanes="" shape="-200.00,0.00 -200.00,9.60 -200.00,0.00"/>
    <junction id="J1" type="traffic_light" x="-100.00" y="0.00" incLanes="E24_0 E24_1 E24_2 E29_0 E29_1 E29_2 +W_0 +W_1 +W_2" intLanes="" shape="-87.65,18.60 -82.71,10.37 -82.50,9.60 -82.50,-9.60 -82.71,-10.37 -87.65,-18.60 -91.02,-16.26 -93.43,-14.12 -95.40,-12.29 -97.49,-10.86 -100.23,-9.93 -104.16,-9.60 -104.16,9.60 -100.23,9.93 -97.49,10.86 -95.40,12.29 -93.43,14.12 -91.02,16.26">
        <request index="0" response="00001110" foes="00001110"/>
        <request index="1" response="00001100" foes="00001101"/>
        <request index="2" response="00000000" foes="00000011"/>
        <request index="3" response="00000000" foes="00000011"/>
        <request index="4" response="00000000" foes="00000000"/>
        <request index="5" response="00000000" foes="00000000"/>
        <request index="6" response="00000000" foes="00000000"/>
        <request index="7" response="00000000" foes="00000000"/>
    </junction>
    <junction id="J11" type="traffic_light" x="0.00" y="0.00" incLanes="E7_0 E7_1 E7_2 E27_0 E27_1 E27_2 -E8_0 -E8_1 -E8_2 E25_0 E25_1 E25_2" intLanes="" shape="-9.60,24.68 9.60,24.68 9.72,23.96 9.87,23.82 10.07,23.81 10.34,23.95 10.66,24.24 17.45,17.45 12.60,11.63 9.69,5.82 8.72,0.00 9.69,-5.82 12.60,-11.63 17.45,-17.45 10.66,-24.24 10.07,-23.81 9.87,-23.82 9.72,-23.96 9.63,-24.25 9.60,-24.68 -9.60,-24.68 -9.72,-23.96 -9.87,-23.82 -10.07,-23.81 -10.34,-23.95 -10.66,-24.24 -17.45,-17.45 -12.60,-11.63 -9.69,-5.82 -8.72,0.00 -9.69,5.82 -12.60,11.63 -17.45,17.45 -10.66,24.24 -10.07,23.81 -9.87,23.82 -9.72,23.96 -9.63,24.25">
        <request index="0" response="0000000000" foes="0011000000"/>
        <request index="1" response="0000100000" foes="0010111100"/>
        <request index="2" response="0001100010" foes="0001100010"/>
        <request index="3" response="0000000010" foes="0000000010"/>
        <request index="4" response="0000000010" foes="0000000010"/>
        <request index="5" response="0000000000" foes="0000000110"/>
        <request index="6" response="0000000001" foes="1110000101"/>
        <request index="7" response="0001000011" foes="0001000011"/>
        <request index="8" response="0001000000" foes="0001000000"/>
        <request index="9" response="0001000000" foes="0001000000"/>
    </junction>
    <junction id="J15" type="priority" x="37.50" y="37.50" incLanes="E22_0 E22_1 E22_2" intLanes="" shape="44.74,44.35 39.80,36.12 38.40,36.77 37.81,36.89 37.28,36.88 36.83,36.73 36.44,36.44 29.65,43.23 30.12,43.93 30.18,44.29 30.12,44.64 29.95,45.00 29.65,45.35 36.44,52.14 38.11,50.37 39.29,48.98 40.27,47.83 41.31,46.78 42.71,45.67">
        <request index="0" response="0000" foes="0000"/>
        <request index="1" response="0000" foes="0000"/>
        <request index="2" response="0000" foes="0000"/>
        <request index="3" response="0000" foes="0000"/>
    </junction>
    <junction id="J16" type="traffic_light" x="-37.50" y="37.50" incLanes="E18_0 E18_1 E18_2 E28_0 E28_1 E28_2" intLanes="" shape="-36.44,52.14 -29.65,45.35 -30.12,44.64 -30.18,44.29 -30.12,43.93 -29.95,43.58 -29.65,43.23 -36.44,36.44 -37.28,36.88 -37.81,36.89 -38.40,36.77 -39.07,36.51 -39.80,36.12 -44.74,44.35 -42.71,45.67 -41.31,46.78 -40.27,47.83 -39.29,48.98 -38.11,50.37">
        <request index="0" response="0000" foes="1100"/>
        <request index="1" response="0000" foes="1100"/>
        <request index="2" response="1011" foes="1011"/>
        <request index="3" response="0011" foes="0111"/>
    </junction>
    <junction id="J17" type="priority" x="-37.50" y="-37.50" incLanes="E23_0 E23_1 E23_2" intLanes="" shape="-36.44,-36.44 -29.65,-43.23 -30.12,-43.93 -30.18,-44.29 -30.12,-44.64 -29.95,-45.00 -29.65,-45.35 -36.44,-52.14 -38.11,-50.37 -39.29,-48.98 -40.27,-47.83 -41.31,-46.78 -42.71,-45.67 -44.74,-44.35 -39.80,-36.12 -38.40,-36.77 -37.81,-36.89 -37.28,-36.88 -36.83,-36.73">
        <request index="0" response="0000" foes="0000"/>
        <request index="1" response="0000" foes="0000"/>
        <request index="2" response="0000" foes="0000"/>
        <request index="3" response="0000" foes="0000"/>
    </junction>
    <junction id="J18" type="traffic_light" x="37.50" y="-37.50" incLanes="E20_0 E20_1 E20_2 E30_0 E30_1 E30_2" intLanes="" shape="39.80,-36.12 44.74,-44.35 42.71,-45.67 41.31,-46.78 40.27,-47.83 39.29,-48.98 38.11,-50.37 36.44,-52.14 29.65,-45.35 30.12,-44.64 30.18,-44.29 30.12,-43.93 29.95,-43.58 29.65,-43.23 36.44,-36.44 37.28,-36.88 37.81,-36.89 38.40,-36.77 39.07,-36.51">
        <request index="0" response="0000" foes="1100"/>
        <request index="1" response="0000" foes="1100"/>
        <request index="2" response="1011" foes="1011"/>
        <request index="3" response="0011" foes="0111"/>
    </junction>
    <junction id="J2" type="dead_end" x="200.00" y="0.00" incLanes="-E_0 -E_1 -E_2" intLanes="" shape="200.00,0.00 200.00,-9.60 200.00,0.00"/>
    <junction id="J3" type="traffic_light" x="100.00" y="0.00" incLanes="+E_0 +E_1 +E_2 E21_0 E21_1 E21_2 -E29_0 -E29_1 -E29_2" intLanes="" shape="104.16,9.60 104.16,-9.60 100.23,-9.93 97.49,-10.86 95.40,-12.29 93.43,-14.12 91.02,-16.26 87.65,-18.60 82.71,-10.37 82.50,-9.60 82.50,9.60 82.71,10.37 87.65,18.60 91.02,16.26 93.43,14.12 95.40,12.29 97.49,10.86 100.23,9.93">
        <request index="0" response="00000000" foes="00000000"/>
        <request index="1" response="00000000" foes="00000000"/>
        <request index="2" response="00000000" foes="00000000"/>
        <request index="3" response="00000000" foes="00000000"/>
        <request index="4" response="11100000" foes="11100000"/>
        <request index="5" response="11000000" foes="11010000"/>
        <request index="6" response="00000000" foes="00110000"/>
        <request index="7" response="00000000" foes="00110000"/>
    </junction>
    <junction id="J4" type="priority" x="0.00" y="100.00" incLanes="+N_0 +N_1 +N_2 -E2_0 -E2_1 -E2_2" intLanes="" shape="-9.60,100.00 9.60,100.00 -9.60,100.00">
        <request index="0" response="0000" foes="0000"/>
        <request index="1" response="0000" foes="0000"/>
        <request index="2" response="0000" foes="0000"/>
        <request index="3" response="0000" foes="0000"/>
    </junction>
    <junction id="J5" type="dead_end" x="0.00" y="200.00" incLanes="-N_0 -N_1 -N_2" intLanes="" shape="0.00,200.00 9.60,200.00 0.00,200.00"/>
    <junction id="J6" type="priority" x="0.00" y="-100.00" incLanes="-E1_0 -E1_1 -E1_2 +S_0 +S_1 +S_2" intLanes="" shape="-9.60,-100.00 9.60,-100.00 -9.60,-100.00">
        <request index="0" response="0000" foes="0000"/>
        <request index="1" response="0000" foes="0000"/>
        <request index="2" response="0000" foes="0000"/>
        <request index="3" response="0000" foes="0000"/>
    </junction>
    <junction id="J7" type="dead_end" x="0.00" y="-200.00" incLanes="-S_0 -S_1 -S_2" intLanes="" shape="0.00,-200.00 -9.60,-200.00 0.00,-200.00"/>
    <junction id="J8" type="traffic_light" x="0.00" y="-75.00" incLanes="E8_0 E8_1 E8_2 E1_0 E1_1 E1_2 E19_0 E19_1 E19_2" intLanes="" shape="-9.60,-63.90 9.60,-63.90 9.72,-64.62 9.87,-64.76 10.07,-64.76 10.34,-64.62 10.66,-64.34 17.45,-71.13 15.05,-73.57 13.09,-75.65 11.56,-77.39 10.47,-78.77 9.82,-79.80 9.60,-80.48 -9.60,-80.48 -10.47,-78.77 -11.56,-77.39 -13.09,-75.65 -15.05,-73.57 -17.45,-71.13 -10.66,-64.34 -10.07,-64.76 -9.87,-64.76 -9.72,-64.62 -9.63,-64.33">
        <request index="0" response="00000000" foes="11000000"/>
        <request index="1" response="00000000" foes="11000000"/>
        <request index="2" response="00000000" foes="00000000"/>
        <request index="3" response="00000000" foes="00000000"/>
        <request index="4" response="00000000" foes="00000000"/>
        <request index="5" response="00000000" foes="00000000"/>
        <request index="6" response="00000011" foes="10000011"/>
        <request index="7" response="01000011" foes="01000011"/>
    </junction>
    <junction id="J9" type="traffic_light" x="0.00" y="75.00" incLanes="E2_0 E2_1 E2_2 E17_0 E17_1 E17_2 -E7_0 -E7_1 -E7_2" intLanes="" shape="-9.60,80.48 9.60,80.48 10.47,78.77 11.56,77.39 13.09,75.65 15.05,73.57 17.45,71.13 10.66,64.34 10.07,64.76 9.87,64.76 9.72,64.62 9.63,64.33 9.60,63.90 -9.60,63.90 -9.72,64.62 -9.87,64.76 -10.07,64.76 -10.34,64.62 -10.66,64.34 -17.45,71.13 -15.05,73.57 -13.09,75.65 -11.56,77.39 -10.47,78.77 -9.82,79.80">
        <request index="0" response="00000000" foes="00000000"/>
        <request index="1" response="00000000" foes="00000000"/>
        <request index="2" response="00000000" foes="00000000"/>
        <request index="3" response="00000000" foes="00000000"/>
        <request index="4" response="11000000" foes="11100000"/>
        <request index="5" response="11010000" foes="11010000"/>
        <request index="6" response="00000000" foes="00110000"/>
        <request index="7" response="00000000" foes="00110000"/>
    </junction>

    <connection from="+E" to="E22" fromLane="1" toLane="1" tl="J3" linkIndex="0" dir="R" state="O"/>
    <connection from="+E" to="E22" fromLane="1" toLane="2" tl="J3" linkIndex="1" dir="R" state="O"/>
    <connection from="+E" to="E29" fromLane="1" toLane="1" tl="J3" linkIndex="2" dir="s" state="O"/>
    <connection from="+E" to="E29" fromLane="2" toLane="2" tl="J3" linkIndex="3" dir="s" state="O"/>
    <connection from="+N" to="E2" fromLane="1" toLane="1" dir="s" state="M"/>
    <connection from="+N" to="E2" fromLane="2" toLane="2" dir="s" state="M"/>
    <connection from="+S" to="E1" fromLane="1" toLane="1" dir="s" state="M"/>
    <connection from="+S" to="E1" fromLane="2" toLane="2" dir="s" state="M"/>
    <connection from="+W" to="E23" fromLane="1" toLane="1" tl="J1" linkIndex="4" dir="R" state="O"/>
    <connection from="+W" to="E23" fromLane="1" toLane="2" tl="J1" linkIndex="5" dir="R" state="O"/>
    <connection from="+W" to="-E29" fromLane="1" toLane="1" tl="J1" linkIndex="6" dir="s" state="O"/>
    <connection from="+W" to="-E29" fromLane="2" toLane="2" tl="J1" linkIndex="7" dir="s" state="O"/>
    <connection from="-E1" to="-S" fromLane="1" toLane="1" dir="s" state="M"/>
    <connection from="-E1" to="-S" fromLane="2" toLane="2" dir="s" state="M"/>
    <connection from="-E2" to="-N" fromLane="1" toLane="1" dir="s" state="M"/>
    <connection from="-E2" to="-N" fromLane="2" toLane="2" dir="s" state="M"/>
    <connection from="-E29" to="-E" fromLane="1" toLane="1" tl="J3" linkIndex="6" dir="s" state="O"/>
    <connection from="-E29" to="-E" fromLane="2" toLane="2" tl="J3" linkIndex="7" dir="s" state="O"/>
    <connection from="-E7" to="-E2" fromLane="1" toLane="1" tl="J9" linkIndex="6" dir="s" state="O"/>
    <connection from="-E7" to="-E2" fromLane="2" toLane="2" tl="J9" linkIndex="7" dir="s" state="O"/>
    <connection from="-E8" to="-E7" fromLane="1" toLane="1" tl="J11" linkIndex="6" dir="s" state="O"/>
    <connection from="-E8" to="E28" fromLane="2" toLane="1" tl="J11" linkIndex="8" dir="l" state="o"/>
    <connection from="E1" to="E20" fromLane="1" toLane="1" tl="J8" linkIndex="2" dir="r" state="O"/>
    <connection from="E1" to="E20" fromLane="1" toLane="2" tl="J8" linkIndex="3" dir="r" state="O"/>
    <connection from="E1" to="-E8" fromLane="1" toLane="1" tl="J8" linkIndex="4" dir="s" state="O"/>
    <connection from="E1" to="-E8" fromLane="2" toLane="2" tl="J8" linkIndex="5" dir="s" state="O"/>
    <connection from="E17" to="-E2" fromLane="1" toLane="1" tl="J9" linkIndex="4" dir="r" state="o"/>
    <connection from="E17" to="-E2" fromLane="2" toLane="1" tl="J9" linkIndex="5" dir="r" state="o"/>
    <connection from="E18" to="E24" fromLane="1" toLane="1" tl="J16" linkIndex="0" dir="s" state="O"/>
    <connection from="E18" to="E24" fromLane="2" toLane="2" tl="J16" linkIndex="1" dir="s" state="O"/>
    <connection from="E19" to="-E1" fromLane="1" toLane="1" tl="J8" linkIndex="6" dir="r" state="o"/>
    <connection from="E19" to="-E1" fromLane="2" toLane="1" tl="J8" linkIndex="7" dir="r" state="o"/>
    <connection from="E2" to="E18" fromLane="1" toLane="1" tl="J9" linkIndex="0" dir="r" state="O"/>
    <connection from="E2" to="E18" fromLane="1" toLane="2" tl="J9" linkIndex="1" dir="r" state="O"/>
    <connection from="E2" to="E7" fromLane="1" toLane="1" tl="J9" linkIndex="2" dir="s" state="O"/>
    <connection from="E2" to="E7" fromLane="2" toLane="2" tl="J9" linkIndex="3" dir="s" state="O"/>
    <connection from="E20" to="E21" fromLane="1" toLane="1" tl="J18" linkIndex="0" dir="s" state="O"/>
    <connection from="E20" to="E21" fromLane="2" toLane="2" tl="J18" linkIndex="1" dir="s" state="O"/>
    <connection from="E21" to="-E" fromLane="1" toLane="1" tl="J3" linkIndex="4" dir="s" state="o"/>
    <connection from="E21" to="-E" fromLane="2" toLane="1" tl="J3" linkIndex="5" dir="s" state="o"/>
    <connection from="E22" to="E17" fromLane="1" toLane="1" dir="s" state="M"/>
    <connection from="E22" to="E17" fromLane="2" toLane="2" dir="s" state="M"/>
    <connection from="E22" to="E27" fromLane="2" toLane="1" dir="l" state="M"/>
    <connection from="E22" to="E27" fromLane="2" toLane="2" dir="l" state="M"/>
    <connection from="E23" to="E19" fromLane="1" toLane="1" dir="s" state="M"/>
    <connection from="E23" to="E19" fromLane="2" toLane="2" dir="s" state="M"/>
    <connection from="E23" to="E25" fromLane="2" toLane="1" dir="l" state="M"/>
    <connection from="E23" to="E25" fromLane="2" toLane="2" dir="l" state="M"/>
    <connection from="E24" to="-W" fromLane="1" toLane="1" tl="J1" linkIndex="0" dir="s" state="o"/>