<?xml version="1.0" encoding="UTF-8"?>

<!-- generated on 2023-04-17 14:50:40 by Eclipse SUMO netedit Version 1.15.0
<configuration xmlns:xsi="http://www.w3.org/2001/XMLSchema-instance" xsi:noNamespaceSchemaLocation="http://sumo.dlr.de/xsd/netconvertConfiguration.xsd">

    <input>
        <sumo-net-file value="Simulations\stack.net.xml"/>
    </input>

    <output>
        <output-file value="Simulations\stack.net.xml"/>
    </output>

    <processing>
        <geometry.min-radius.fix.railways value="false"/>
        <geometry.max-grade.fix value="false"/>
        <offset.disable-normalization value="true"/>
        <lefthand value="0"/>
    </processing>

    <junctions>
        <no-internal-links value="true"/>
        <no-turnarounds value="true"/>
        <junctions.corner-detail value="5"/>
        <junctions.limit-turn-speed value="5.50"/>
        <rectangular-lane-cut value="0"/>
    </junctions>

    <pedestrian>
        <walkingareas value="0"/>
    </pedestrian>

</configuration>
-->

<net version="1.9" junctionCornerDetail="5" limitTurnSpeed="5.50" xmlns:xsi="http://www.w3.org/2001/XMLSchema-instance" xsi:noNamespaceSchemaLocation="http://sumo.dlr.de/xsd/net_file.xsd">

    <location netOffset="0.00,0.00" convBoundary="-200.00,-200.00,200.00,200.00" origBoundary="-10000000000.00,-10000000000.00,10000000000.00,10000000000.00" projParameter="!"/>

    <edge id="+E" from="J2" to="J3" priority="-1">
        <lane id="+E_0" index="0" allow="pedestrian" speed="13.89" length="112.91" shape="200.00,8.00 96.61,8.00"/>
        <lane id="+E_1" index="1" disallow="pedestrian" speed="13.89" length="112.91" shape="200.00,4.80 96.61,4.80"/>
        <lane id="+E_2" index="2" disallow="pedestrian" speed="13.89" length="112.91" shape="200.00,1.60 96.61,1.60"/>
    </edge>
    <edge id="+N" from="J5" to="J4" priority="-1">
        <lane id="+N_0" index="0" allow="pedestrian" speed="13.89" length="112.91" shape="-8.00,200.00 -8.00,96.61"/>
        <lane id="+N_1" index="1" disallow="pedestrian" speed="13.89" length="112.91" shape="-4.80,200.00 -4.80,96.61"/>
        <lane id="+N_2" index="2" disallow="pedestrian" speed="13.89" length="112.91" shape="-1.60,200.00 -1.60,96.61"/>
    </edge>
    <edge id="+S" from="J7" to="J6" priority="-1">
        <lane id="+S_0" index="0" allow="pedestrian" speed="13.89" length="112.91" shape="8.00,-200.00 8.00,-96.61"/>
        <lane id="+S_1" index="1" disallow="pedestrian" speed="13.89" length="112.91" shape="4.80,-200.00 4.80,-96.61"/>
        <lane id="+S_2" index="2" disallow="pedestrian" speed="13.89" length="112.91" shape="1.60,-200.00 1.60,-96.61"/>
    </edge>
    <edge id="+W" from="J0" to="J1" priority="-1">
        <lane id="+W_0" index="0" allow="pedestrian" speed="13.89" length="112.91" shape="-200.00,-8.00 -96.61,-8.00"/>
        <lane id="+W_1" index="1" disallow="pedestrian" speed="13.89" length="112.91" shape="-200.00,-4.80 -96.61,-4.80"/>
        <lane id="+W_2" index="2" disallow="pedestrian" speed="13.89" length="112.91" shape="-200.00,-1.60 -96.61,-1.60"/>
    </edge>
    <edge id="-E" from="J3" to="J2" priority="-1">
        <lane id="-E_0" index="0" allow="pedestrian" speed="13.89" length="112.91" shape="96.61,-8.00 200.00,-8.00"/>
        <lane id="-E_1" index="1" disallow="pedestrian" speed="13.89" length="112.91" shape="96.61,-4.80 200.00,-4.80"/>
        <lane id="-E_2" index="2" disallow="pedestrian" speed="13.89" length="112.91" shape="96.61,-1.60 200.00,-1.60"/>
    </edge>
    <edge id="-E0" from="J4" to="J6" priority="-1">
        <lane id="-E0_0" index="0" allow="pedestrian" speed="13.89" length="174.18" shape="-8.00,79.30 -8.00,-79.30"/>
        <lane id="-E0_1" index="1" disallow="pedestrian" speed="13.89" length="174.18" shape="-4.80,79.30 -4.80,-79.30"/>
        <lane id="-E0_2" index="2" disallow="pedestrian" speed="13.89" length="174.18" shape="-1.60,79.30 -1.60,-79.30"/>
    </edge>
    <edge id="-E1" from="J3" to="J1" priority="-1">
        <lane id="-E1_0" index="0" allow="pedestrian" speed="13.89" length="174.18" shape="79.30,8.00 -79.30,8.00"/>
        <lane id="-E1_1" index="1" disallow="pedestrian" speed="13.89" length="174.18" shape="79.30,4.80 -79.30,4.80"/>
        <lane id="-E1_2" index="2" disallow="pedestrian" speed="13.89" length="174.18" shape="79.30,1.60 -79.30,1.60"/>
    </edge>
    <edge id="-N" from="J4" to="J5" priority="-1">
        <lane id="-N_0" index="0" allow="pedestrian" speed="13.89" length="112.91" shape="8.00,96.61 8.00,200.00"/>
        <lane id="-N_1" index="1" disallow="pedestrian" speed="13.89" length="112.91" shape="4.80,96.61 4.80,200.00"/>
        <lane id="-N_2" index="2" disallow="pedestrian" speed="13.89" length="112.91" shape="1.60,96.61 1.60,200.00"/>
    </edge>
    <edge id="-S" from="J6" to="J7" priority="-1">
        <lane id="-S_0" index="0" allow="pedestrian" speed="13.89" length="112.91" shape="-8.00,-96.61 -8.00,-200.00"/>
        <lane id="-S_1" index="1" disallow="pedestrian" speed="13.89" length="112.91" shape="-4.80,-96.61 -4.80,-200.00"/>
        <lane id="-S_2" index="2" disallow="pedestrian" speed="13.89" length="112.91" shape="-1.60,-96.61 -1.60,-200.00"/>
    </edge>
    <edge id="-W" from="J1" to="J0" priority="-1">
        <lane id="-W_0" index="0" allow="pedestrian" speed="13.89" length="112.91" shape="-96.61,8.00 -200.00,8.00"/>
        <lane id="-W_1" index="1" disallow="pedestrian" speed="13.89" length="112.91" shape="-96.61,4.80 -200.00,4.80"/>
        <lane id="-W_2" index="2" disallow="pedestrian" speed="13.89" length="112.91" shape="-96.61,1.60 -200.00,1.60"/>
    </edge>
    <edge id="E0" from="J6" to="J4" priority="-1">
        <lane id="E0_0" index="0" allow="pedestrian" speed="13.89" length="174.18" shape="8.00,-79.30 8.00,79.30"/>
        <lane id="E0_1" index="1" disallow="pedestrian" speed="13.89" length="174.18" shape="4.80,-79.30 4.80,79.30"/>
        <lane id="E0_2" index="2" disallow="pedestrian" speed="13.89" length="174.18" shape="1.60,-79.30 1.60,79.30"/>
    </edge>
    <edge id="E1" from="J1" to="J3" priority="-1">
        <lane id="E1_0" index="0" allow="pedestrian" speed="13.89" length="174.18" shape="-79.30,-8.00 79.30,-8.00"/>
        <lane id="E1_1" index="1" disallow="pedestrian" speed="13.89" length="174.18" shape="-79.30,-4.80 79.30,-4.80"/>
        <lane id="E1_2" index="2" disallow="pedestrian" speed="13.89" length="174.18" shape="-79.30,-1.60 79.30,-1.60"/>
    </edge>
    <edge id="E10" from="J9" to="J15" priority="-1" shape="-75.00,-12.50 -72.98,-12.49 -70.98,-12.45 -69.00,-12.39 -67.05,-12.31 -65.12,-12.20 -63.22,-12.07 -61.34,-11.92 -59.48,-11.74 -57.64,-11.54 -55.83,-11.32 -54.05,-11.07 -52.29,-10.80 -50.55,-10.50 -48.83,-10.18 -47.14,-9.84 -45.47,-9.47 -43.83,-9.08 -42.21,-8.67 -40.61,-8.23 -39.03,-7.77 -37.48,-7.28 -35.96,-6.77 -34.46,-6.24 -32.98,-5.69 -31.52,-5.11 -30.09,-4.50 -28.68,-3.88 -27.30,-3.22 -25.94,-2.55 -24.60,-1.85 -23.29,-1.13 -22.00,-0.39 -20.73,0.38 -19.49,1.18 -18.27,1.99 -17.08,2.83 -15.91,3.70 -14.76,4.58 -13.63,5.49 -12.53,6.43 -11.46,7.39 -10.40,8.37 -9.37,9.38 -8.37,10.40 -7.39,11.46 -6.43,12.53 -5.49,13.63 -4.58,14.76 -3.70,15.91 -2.83,17.08 -1.99,18.27 -1.18,19.49 -0.38,20.73 0.39,22.00 1.13,23.29 1.85,24.60 2.55,25.94 3.22,27.30 3.88,28.68 4.50,30.09 5.11,31.52 5.69,32.98 6.24,34.46 6.77,35.96 7.28,37.48 7.77,39.03 8.23,40.61 8.67,42.21 9.08,43.83 9.47,45.47 9.84,47.14 10.18,48.83 10.50,50.55 10.80,52.29 11.07,54.05 11.32,55.83 11.54,57.64 11.74,59.48 11.92,61.34 12.07,63.22 12.20,65.12 12.31,67.05 12.39,69.00 12.45,70.98 12.49,72.98 12.50,75.00">
        <lane id="E10_0" index="0" disallow="pedestrian" speed="13.89" length="142.03" shape="-64.70,-16.98 -62.87,-16.86 -60.92,-16.70 -58.99,-16.51 -57.09,-16.31 -55.21,-16.08 -53.35,-15.82 -51.52,-15.54 -49.70,-15.22 -47.92,-14.89 -46.15,-14.54 -44.40,-14.15 -42.69,-13.74 -40.98,-13.31 -39.30,-12.85 -37.64,-12.36 -35.99,-11.84 -34.40,-11.31 -32.82,-10.75 -31.26,-10.17 -29.69,-9.55 -28.18,-8.90 -26.68,-8.24 -25.20,-7.54 -23.77,-6.83 -22.33,-6.08 -20.94,-5.32 -19.56,-4.52 -18.18,-3.69 -16.86,-2.84 -15.56,-1.97 -14.26,-1.06 -13.02,-0.13 -11.80,0.80 -10.57,1.80 -9.37,2.82 -8.23,3.84 -7.09,4.89 -5.98,5.99 -4.89,7.09 -3.84,8.23 -2.82,9.37 -1.80,10.57 -0.80,11.80 0.13,13.02 1.06,14.26 1.97,15.56 2.84,16.86 3.69,18.18 4.52,19.56 5.32,20.94 6.08,22.33 6.83,23.77 7.54,25.20 8.24,26.68 8.90,28.18 9.55,29.69 10.17,31.26 10.75,32.82 11.31,34.40 11.84,35.99 12.36,37.64 12.85,39.30 13.31,40.98 13.74,42.69 14.15,44.40 14.54,46.15 14.89,47.92 15.22,49.70 15.54,51.52 15.82,53.35 16.08,55.21 16.31,57.09 16.51,58.99 16.70,60.92 16.86,62.87 16.98,64.70"/>
        <lane id="E10_1" index="1" disallow="pedestrian" speed="13.89" length="142.03" shape="-64.72,-13.78 -63.10,-13.67 -61.20,-13.51 -59.32,-13.33 -57.46,-13.13 -55.62,-12.91 -53.82,-12.65 -52.03,-12.38 -50.27,-12.07 -48.53,-11.75 -46.81,-11.41 -45.11,-11.03 -43.45,-10.63 -41.80,-10.22 -40.17,-9.77 -38.57,-9.30 -36.98,-8.80 -35.44,-8.28 -33.91,-7.74 -32.41,-7.18 -30.91,-6.59 -29.45,-5.97 -28.01,-5.33 -26.60,-4.66 -25.22,-3.98 -23.84,-3.26 -22.51,-2.53 -21.19,-1.77 -19.88,-0.98 -18.61,-0.16 -17.37,0.67 -16.14,1.53 -14.95,2.42 -13.77,3.32 -12.61,4.26 -11.48,5.23 -10.38,6.21 -9.30,7.21 -8.24,8.25 -7.21,9.30 -6.21,10.38 -5.23,11.48 -4.26,12.61 -3.32,13.77 -2.42,14.95 -1.53,16.14 -0.67,17.37 0.16,18.61 0.98,19.88 1.77,21.19 2.53,22.51 3.26,23.84 3.98,25.22 4.66,26.60 5.33,28.01 5.97,29.45 6.59,30.91 7.18,32.41 7.74,33.91 8.28,35.44 8.80,36.98 9.30,38.57 9.77,40.17 10.22,41.80 10.63,43.45 11.03,45.11 11.41,46.81 11.75,48.53 12.07,50.27 12.38,52.03 12.65,53.82 12.91,55.62 13.13,57.46 13.33,59.32 13.51,61.20 13.67,63.10 13.78,64.72"/>
    </edge>
    <edge id="E11" from="J8" to="J14" priority="-1" shape="12.50,-75.00 12.49,-72.98 12.45,-70.98 12.39,-69.00 12.31,-67.05 12.20,-65.12 12.07,-63.22 11.92,-61.34 11.74,-59.48 11.54,-57.64 11.32,-55.83 11.07,-54.05 10.80,-52.29 10.50,-50.55 10.18,-48.83 9.84,-47.14 9.47,-45.47 9.08,-43.83 8.67,-42.21 8.23,-40.61 7.77,-39.03 7.28,-37.48 6.77,-35.96 6.24,-34.46 5.69,-32.98 5.11,-31.52 4.50,-30.09 3.88,-28.68 3.22,-27.30 2.55,-25.94 1.85,-24.60 1.13,-23.29 0.39,-22.00 -0.38,-20.73 -1.18,-19.49 -1.99,-18.27 -2.83,-17.08 -3.70,-15.91 -4.58,-14.76 -5.49,-13.63 -6.43,-12.53 -7.39,-11.46 -8.37,-10.40 -9.38,-9.37 -10.40,-8.37 -11.46,-7.39 -12.53,-6.43 -13.63,-5.49 -14.76,-4.58 -15.91,-3.70 -17.08,-2.83 -18.27,-1.99 -19.49,-1.18 -20.73,-0.38 -22.00,0.39 -23.29,1.13 -24.60,1.85 -25.94,2.55 -27.30,3.22 -28.68,3.88 -30.09,4.50 -31.52,5.11 -32.98,5.69 -34.46,6.24 -35.96,6.77 -37.48,7.28 -39.03,7.77 -40.61,8.23 -42.21,8.67 -43.83,9.08 -45.47,9.47 -47.14,9.84 -48.83,10.18 -50.55,10.50 -52.29,10.80 -54.05,11.07 -55.83,11.32 -57.64,11.54 -59.48,11.74 -61.34,11.92 -63.22,12.07 -65.12,12.20 -67.05,12.31 -69.00,12.39 -70.98,12.45 -72.98,12.49 -75.00,12.50">
        <lane id="E11_0" index="0" disallow="pedestrian" speed="13.89" length="142.03" shape="16.98,-64.70 16.86,-62.87 16.70,-60.92 16.51,-58.99 16.31,-57.09 16.08,-55.21 15.82,-53.35 15.54,-51.52 15.22,-49.70 14.89,-47.92 14.54,-46.15 14.15,-44.40 13.74,-42.69 13.31,-40.98 12.85,-39.30 12.36,-37.64 11.84,-35.99 11.31,-34.40 10.75,-32.82 10.17,-31.26 9.55,-29.69 8.90,-28.18 8.24,-26.68 7.54,-25.20 6.83,-23.77 6.08,-22.33 5.32,-20.94 4.52,-19.56 3.69,-18.18 2.84,-16.86 1.97,-15.56 1.06,-14.26 0.13,-13.02 -0.80,-11.80 -1.80,-10.57 -2.82,-9.37 -3.84,-8.23 -4.89,-7.09 -5.99,-5.98 -7.09,-4.89 -8.23,-3.84 -9.37,-2.82 -10.57,-1.80 -11.80,-0.80 -13.02,0.13 -14.26,1.06 -15.56,1.97 -16.86,2.84 -18.18,3.69 -19.56,4.52 -20.94,5.32 -22.33,6.08 -23.77,6.83 -25.20,7.54 -26.68,8.24 -28.18,8.90 -29.69,9.55 -31.26,10.17 -32.82,10.75 -34.40,11.31 -35.99,11.84 -37.64,12.36 -39.30,12.85 -40.98,13.31 -42.69,13.74 -44.40,14.15 -46.15,14.54 -47.92,14.89 -49.70,15.22 -51.52,15.54 -53.35,15.82 -55.21,16.08 -57.09,16.31 -58.99,16.51 -60.92,16.70 -62.87,16.86 -64.70,16.98"/>
        <lane id="E11_1" index="1" disallow="pedestrian" speed="13.89" length="142.03" shape="13.78,-64.72 13.67,-63.10 13.51,-61.20 13.33,-59.32 13.13,-57.46 12.91,-55.62 12.65,-53.82 12.38,-52.03 12.07,-50.27 11.75,-48.53 11.41,-46.81 11.03,-45.11 10.63,-43.45 10.22,-41.80 9.77,-40.17 9.30,-38.57 8.80,-36.98 8.28,-35.44 7.74,-33.91 7.18,-32.41 6.59,-30.91 5.97,-29.45 5.33,-28.01 4.66,-26.60 3.98,-25.22 3.26,-23.84 2.53,-22.51 1.77,-21.19 0.98,-19.88 0.16,-18.61 -0.67,-17.37 -1.53,-16.14 -2.42,-14.95 -3.32,-13.77 -4.26,-12.61 -5.23,-11.48 -6.21,-10.38 -7.21,-9.30 -8.25,-8.24 -9.30,-7.21 -10.38,-6.21 -11.48,-5.23 -12.61,-4.26 -13.77,-3.32 -14.95,-2.42 -16.14,-1.53 -17.37,-0.67 -18.61,0.16 -19.88,0.98 -21.19,1.77 -22.51,2.53 -23.84,3.26 -25.22,3.98 -26.60,4.66 -28.01,5.33 -29.45,5.97 -30.91,6.59 -32.41,7.18 -33.91,7.74 -35.44,8.28 -36.98,8.80 -38.57,9.30 -40.17,9.77 -41.80,10.22 -43.45,10.63 -45.11,11.03 -46.81,11.41 -48.53,11.75 -50.27,12.07 -52.03,12.38 -53.82,12.65 -55.62,12.91 -57.46,13.13 -59.32,13.33 -61.20,13.51 -63.10,13.67 -64.72,13.78"/>
    </edge>
    <edge id="E12" from="J10" to="J13" priority="-1" shape="75.00,12.50 72.98,12.49 70.98,12.45 69.00,12.39 67.05,12.31 65.12,12.20 63.22,12.07 61.34,11.92 59.48,11.74 57.64,11.54 55.83,11.32 54.05,11.07 52.29,10.80 50.55,10.50 48.83,10.18 47.14,9.84 45.47,9.47 43.83,9.08 42.21,8.67 40.61,8.23 39.03,7.77 37.48,7.28 35.96,6.77 34.46,6.24 32.98,5.69 31.52,5.11 30.09,4.50 28.68,3.88 27.30,3.22 25.94,2.55 24.60,1.85 23.29,1.13 22.00,0.39 20.73,-0.38 19.49,-1.18 18.27,-1.99 17.08,-2.83 15.91,-3.70 14.76,-4.58 13.63,-5.49 12.53,-6.43 11.46,-7.39 10.40,-8.37 9.37,-9.38 8.37,-10.40 7.39,-11.46 6.43,-12.53 5.49,-13.63 4.58,-14.76 3.70,-15.91 2.83,-17.08 1.99,-18.27 1.18,-19.49 0.38,-20.73 -0.39,-22.00 -1.13,-23.29 -1.85,-24.60 -2.55,-25.94 -3.22,-27.30 -3.88,-28.68 -4.50,-30.09 -5.11,-31.52 -5.69,-32.98 -6.24,-34.46 -6.77,-35.96 -7.28,-37.48 -7.77,-39.03 -8.23,-40.61 -8.67,-42.21 -9.08,-43.83 -9.47,-45.47 -9.84,-47.14 -10.18,-48.83 -10.50,-50.55 -10.80,-52.29 -11.07,-54.05 -11.32,-55.83 -11.54,-57.64 -11.74,-59.48 -11.92,-61.34 -12.07,-63.22 -12.20,-65.12 -12.31,-67.05 -12.39,-69.00 -12.45,-70.98 -12.49,-72.98 -12.50,-75.00">
        <lane id="E12_0" index="0" disallow="pedestrian" speed="13.89" length="142.03" shape="64.70,16.98 62.87,16.86 60.92,16.70 58.99,16.51 57.09,16.31 55.21,16.08 53.35,15.82 51.52,15.54 49.70,15.22 47.92,14.89 46.15,14.54 44.40,14.15 42.69,13.74 40.98,13.31 39.30,12.85 37.64,12.36 35.99,11.84 34.40,11.31 32.82,10.75 31.26,10.17 29.69,9.55 28.18,8.90 26.68,8.24 25.20,7.54 23.77,6.83 22.33,6.08 20.94,5.32 19.56,4.52 18.18,3.69 16.86,2.84 15.56,1.97 14.26,1.06 13.02,0.13 11.80,-0.80 10.57,-1.80 9.37,-2.82 8.23,-3.84 7.09,-4.89 5.98,-5.99 4.89,-7.09 3.84,-8.23 2.82,-9.37 1.80,-10.57 0.80,-11.80 -0.13,-13.02 -1.06,-14.26 -1.97,-15.56 -2.84,-16.86 -3.69,-18.18 -4.52,-19.56 -5.32,-20.94 -6.08,-22.33 -6.83,-23.77 -7.54,-25.20 -8.24,-26.68 -8.90,-28.18 -9.55,-29.69 -10.17,-31.26 -10.75,-32.82 -11.31,-34.40 -11.84,-35.99 -12.36,-37.64 -12.85,-39.30 -13.31,-40.98 -13.74,-42.69 -14.15,-44.40 -14.54,-46.15 -14.89,-47.92 -15.22,-49.70 -15.54,-51.52 -15.82,-53.35 -16.08,-55.21 -16.31,-57.09 -16.51,-58.99 -16.70,-60.92 -16.86,-62.87 -16.98,-64.70"/>
        <lane id="E12_1" index="1" disallow="pedestrian" speed="13.89" length="142.03" shape="64.72,13.78 63.10,13.67 61.20,13.51 59.32,13.33 57.46,13.13 55.62,12.91 53.82,12.65 52.03,12.38 50.27,12.07 48.53,11.75 46.81,11.41 45.11,11.03 43.45,10.63 41.80,10.22 40.17,9.77 38.57,9.30 36.98,8.80 35.44,8.28 33.91,7.74 32.41,7.18 30.91,6.59 29.45,5.97 28.01,5.33 26.60,4.66 25.22,3.98 23.84,3.26 22.51,2.53 21.19,1.77 19.88,0.98 18.61,0.16 17.37,-0.67 16.14,-1.53 14.95,-2.42 13.77,-3.32 12.61,-4.26 11.48,-5.23 10.38,-6.21 9.30,-7.21 8.24,-8.25 7.21,-9.30 6.21,-10.38 5.23,-11.48 4.26,-12.61 3.32,-13.77 2.42,-14.95 1.53,-16.14 0.67,-17.37 -0.16,-18.61 -0.98,-19.88 -1.77,-21.19 -2.53,-22.51 -3.26,-23.84 -3.98,-25.22 -4.66,-26.60 -5.33,-28.01 -5.97,-29.45 -6.59,-30.91 -7.18,-32.41 -7.74,-33.91 -8.28,-35.44 -8.80,-36.98 -9.30,-38.57 -9.77,-40.17 -10.22,-41.80 -10.63,-43.45 -11.03,-45.11 -11.41,-46.81 -11.75,-48.53 -12.07,-50.27 -12.38,-52.03 -12.65,-53.82 -12.91,-55.62 -13.13,-57.46 -13.33,-59.32 -13.51,-61.20 -13.67,-63.10 -13.78,-64.72"/>
    </edge>
    <edge id="E13" from="J11" to="J12" priority="-1" shape="-12.50,75.00 -12.49,72.98 -12.45,70.98 -12.39,69.00 -12.31,67.05 -12.20,65.12 -12.07,63.22 -11.92,61.34 -11.74,59.48 -11.54,57.64 -11.32,55.83 -11.07,54.05 -10.80,52.29 -10.50,50.55 -10.18,48.83 -9.84,47.14 -9.47,45.47 -9.08,43.83 -8.67,42.21 -8.23,40.61 -7.77,39.03 -7.28,37.48 -6.77,35.96 -6.24,34.46 -5.69,32.98 -5.11,31.52 -4.50,30.09 -3.88,28.68 -3.22,27.30 -2.55,25.94 -1.85,24.60 -1.13,23.29 -0.39,22.00 0.38,20.73 1.18,19.49 1.99,18.27 2.83,17.08 3.70,15.91 4.58,14.76 5.49,13.63 6.43,12.53 7.39,11.46 8.37,10.40 9.38,9.37 10.40,8.37 11.46,7.39 12.53,6.43 13.63,5.49 14.76,4.58 15.91,3.70 17.08,2.83 18.27,1.99 19.49,1.18 20.73,0.38 22.00,-0.39 23.29,-1.13 24.60,-1.85 25.94,-2.55 27.30,-3.22 28.68,-3.88 30.09,-4.50 31.52,-5.11 32.98,-5.69 34.46,-6.24 35.96,-6.77 37.48,-7.28 39.03,-7.77 40.61,-8.23 42.21,-8.67 43.83,-9.08 45.47,-9.47 47.14,-9.84 48.83,-10.18 50.55,-10.50 52.29,-10.80 54.05,-11.07 55.83,-11.32 57.64,-11.54 59.48,-11.74 61.34,-11.92 63.22,-12.07 65.12,-12.20 67.05,-12.31 69.00,-12.39 70.98,-12.45 72.98,-12.49 75.00,-12.50">
        <lane id="E13_0" index="0" disallow="pedestrian" speed="13.89" length="142.03" shape="-16.98,64.70 -16.86,62.87 -16.70,60.92 -16.51,58.99 -16.31,57.09 -16.08,55.21 -15.82,53.35 -15.54,51.52 -15.22,49.70 -14.89,47.92 -14.54,46.15 -14.15,44.40 -13.74,42.69 -13.31,40.98 -12.85,39.30 -12.36,37.64 -11.84,35.99 -11.31,34.40 -10.75,32.82 -10.17,31.26 -9.55,29.69 -8.90,28.18 -8.24,26.68 -7.54,25.20 -6.83,23.77 -6.08,22.33 -5.32,20.94 -4.52,19.56 -3.69,18.18 -2.84,16.86 -1.97,15.56 -1.06,14.26 -0.13,13.02 0.80,11.80 1.80,10.57 2.82,9.37 3.84,8.23 4.89,7.09 5.99,5.98 7.09,4.89 8.23,3.84 9.37,2.82 10.57,1.80 11.80,0.80 13.02,-0.13 14.26,-1.06 15.56,-1.97 16.86,-2.84 18.18,-3.69 19.56,-4.52 20.94,-5.32 22.33,-6.08 23.77,-6.83 25.20,-7.54 26.68,-8.24 28.18,-8.90 29.69,-9.55 31.26,-10.17 32.82,-10.75 34.40,-11.31 35.99,-11.84 37.64,-12.36 39.30,-12.85 40.98,-13.31 42.69,-13.74 44.40,-14.15 46.15,-14.54 47.92,-14.89 49.70,-15.22 51.52,-15.54 53.35,-15.82 55.21,-16.08 57.09,-16.31 58.99,-16.51 60.92,-16.70 62.87,-16.86 64.70,-16.98"/>
        <lane id="E13_1" index="1" disallow="pedestrian" speed="13.89" length="142.03" shape="-13.78,64.72 -13.67,63.10 -13.51,61.20 -13.33,59.32 -13.13,57.46 -12.91,55.62 -12.65,53.82 -12.38,52.03 -12.07,50.27 -11.75,48.53 -11.41,46.81 -11.03,45.11 -10.63,43.45 -10.22,41.80 -9.77,40.17 -9.30,38.57 -8.80,36.98 -8.28,35.44 -7.74,33.91 -7.18,32.41 -6.59,30.91 -5.97,29.45 -5.33,28.01 -4.66,26.60 -3.98,25.22 -3.26,23.84 -2.53,22.51 -1.77,21.19 -0.98,19.88 -0.16,18.61 0.67,17.37 1.53,16.14 2.42,14.95 3.32,13.77 4.26,12.61 5.23,11.48 6.21,10.38 7.21,9.30 8.25,8.24 9.30,7.21 10.38,6.21 11.48,5.23 12.61,4.26 13.77,3.32 14.95,2.42 16.14,1.53 17.37,0.67 18.61,-0.16 19.88,-0.98 21.19,-1.77 22.51,-2.53 23.84,-3.26 25.22,-3.98 26.60,-4.66 28.01,-5.33 29.45,-5.97 30.91,-6.59 32.41,-7.18 33.91,-7.74 35.44,-8.28 36.98,-8.80 38.57,-9.30 40.17,-9.77 41.80,-10.22 43.45,-10.63 45.11,-11.03 46.81,-11.41 48.53,-11.75 50.27,-12.07 52.03,-12.38 53.82,-12.65 55.62,-12.91 57.46,-13.13 59.32,-13.33 61.20,-13.51 63.10,-13.67 64.72,-13.78"/>
    </edge>
    <edge id="E14" from="J11" to="J14" priority="-1" shape="-12.50,75.00 -13.64,73.30 -14.80,71.62 -15.97,69.94 -17.15,68.29 -18.34,66.64 -19.55,65.01 -20.77,63.38 -22.00,61.78 -23.25,60.18 -24.51,58.60 -25.78,57.03 -27.07,55.48 -28.36,53.93 -29.67,52.40 -31.00,50.88 -32.33,49.38 -33.68,47.89 -35.05,46.41 -36.42,44.94 -37.81,43.49 -39.21,42.05 -40.62,40.63 -42.05,39.21 -43.49,37.81 -44.94,36.42 -46.41,35.05 -47.89,33.68 -49.38,32.33 -50.88,31.00 -52.40,29.67 -53.93,28.36 -55.48,27.07 -57.03,25.78 -58.60,24.51 -60.18,23.25 -61.78,22.00 -63.38,20.77 -65.01,19.55 -66.64,18.34 -68.29,17.15 -69.94,15.97 -71.62,14.80 -73.30,13.64 -75.00,12.50">
        <lane id="E14_0" index="0" disallow="pedestrian" speed="13.89" length="88.97" shape="-23.56,67.67 -24.59,66.28 -25.79,64.72 -27.02,63.15 -28.25,61.61 -29.49,60.07 -30.76,58.55 -32.03,57.03 -33.30,55.54 -34.60,54.05 -35.90,52.58 -37.22,51.13 -38.57,49.68 -39.91,48.24 -41.26,46.82 -42.63,45.41 -44.01,44.02 -45.41,42.63 -46.82,41.26 -48.24,39.91 -49.68,38.57 -51.13,37.22 -52.58,35.90 -54.05,34.60 -55.54,33.30 -57.03,32.03 -58.55,30.76 -60.07,29.49 -61.61,28.25 -63.15,27.02 -64.72,25.79 -66.28,24.59 -67.67,23.56"/>
        <lane id="E14_1" index="1" disallow="pedestrian" speed="13.89" length="88.97" shape="-20.90,65.88 -22.04,64.35 -23.26,62.76 -24.51,61.17 -25.76,59.60 -27.02,58.04 -28.30,56.50 -29.58,54.96 -30.88,53.45 -32.20,51.94 -33.52,50.45 -34.86,48.97 -36.22,47.50 -37.58,46.04 -38.96,44.60 -40.35,43.17 -41.75,41.76 -43.17,40.35 -44.60,38.96 -46.04,37.58 -47.50,36.22 -48.97,34.86 -50.45,33.52 -51.94,32.20 -53.45,30.88 -54.96,29.58 -56.50,28.30 -58.04,27.02 -59.60,25.76 -61.17,24.51 -62.76,23.26 -64.35,22.04 -65.88,20.90"/>
    </edge>
    <edge id="E15" from="J9" to="J13" priority="-1" shape="-75.00,-12.50 -73.30,-13.64 -71.62,-14.80 -69.94,-15.97 -68.29,-17.15 -66.64,-18.34 -65.01,-19.55 -63.38,-20.77 -61.78,-22.00 -60.18,-23.25 -58.60,-24.51 -57.03,-25.78 -55.48,-27.07 -53.93,-28.36 -52.40,-29.67 -50.88,-31.00 -49.38,-32.33 -47.89,-33.68 -46.41,-35.05 -44.94,-36.42 -43.49,-37.81 -42.05,-39.21 -40.63,-40.62 -39.21,-42.05 -37.81,-43.49 -36.42,-44.94 -35.05,-46.41 -33.68,-47.89 -32.33,-49.38 -31.00,-50.88 -29.67,-52.40 -28.36,-53.93 -27.07,-55.48 -25.78,-57.03 -24.51,-58.60 -23.25,-60.18 -22.00,-61.78 -20.77,-63.38 -19.55,-65.01 -18.34,-66.64 -17.15,-68.29 -15.97,-69.94 -14.80,-71.62 -13.64,-73.30 -12.50,-75.00">
        <lane id="E15_0" index="0" disallow="pedestrian" speed="13.89" length="88.97" shape="-67.67,-23.56 -66.28,-24.59 -64.72,-25.79 -63.15,-27.02 -61.61,-28.25 -60.07,-29.49 -58.55,-30.76 -57.03,-32.03 -55.54,-33.30 -54.05,-34.60 -52.58,-35.90 -51.13,-37.22 -49.68,-38.57 -48.24,-39.91 -46.82,-41.26 -45.41,-42.63 -44.02,-44.01 -42.63,-45.41 -41.26,-46.82 -39.91,-48.24 -38.57,-49.68 -37.22,-51.13 -35.90,-52.58 -34.60,-54.05 -33.30,-55.54 -32.03,-57.03 -30.76,-58.55 -29.49,-60.07 -28.25,-61.61 -27.02,-63.15 -25.79,-64.72 -24.59,-66.28 -23.56,-67.67"/>
        <lane id="E15_1" index="1" disallow="pedestrian" speed="13.89" length="88.97" shape="-65.88,-20.90 -64.35,-22.04 -62.76,-23.26 -61.17,-24.51 -59.60,-25.76 -58.04,-27.02 -56.50,-28.30 -54.96,-29.58 -53.45,-30.88 -51.94,-32.20 -50.45,-33.52 -48.97,-34.86 -47.50,-36.22 -46.04,-37.58 -44.60,-38.96 -43.17,-40.35 -41.76,-41.75 -40.35,-43.17 -38.96,-44.60 -37.58,-46.04 -36.22,-47.50 -34.86,-48.97 -33.52,-50.45 -32.20,-51.94 -30.88,-53.45 -29.58,-54.96 -28.30,-56.50 -27.02,-58.04 -25.76,-59.60 -24.51,-61.17 -23.26,-62.76 -22.04,-64.35 -20.90,-65.88"/>
    </edge>
    <edge id="E16" from="J8" to="J12" priority="-1" shape="12.50,-75.00 13.64,-73.30 14.80,-71.62 15.97,-69.94 17.15,-68.29 18.34,-66.64 19.55,-65.01 20.77,-63.38 22.00,-61.78 23.25,-60.18 24.51,-58.60 25.78,-57.03 27.07,-55.48 28.36,-53.93 29.67,-52.40 31.00,-50.88 32.33,-49.38 33.68,-47.89 35.05,-46.41 36.42,-44.94 37.81,-43.49 39.21,-42.05 40.62,-40.63 42.05,-39.21 43.49,-37.81 44.94,-36.42 46.41,-35.05 47.89,-33.68 49.38,-32.33 50.88,-31.00 52.40,-29.67 53.93,-28.36 55.48,-27.07 57.03,-25.78 58.60,-24.51 60.18,-23.25 61.78,-22.00 63.38,-20.77 65.01,-19.55 66.64,-18.34 68.29,-17.15 69.94,-15.97 71.62,-14.80 73.30,-13.64 75.00,-12.50">
        <lane id="E16_0" index="0" disallow="pedestrian" speed="13.89" length="88.97" shape="23.56,-67.67 24.59,-66.28 25.79,-64.72 27.02,-63.15 28.25,-61.61 29.49,-60.07 30.76,-58.55 32.03,-57.03 33.30,-55.54 34.60,-54.05 35.90,-52.58 37.22,-51.13 38.57,-49.68 39.91,-48.24 41.26,-46.82 42.63,-45.41 44.01,-44.02 45.41,-42.63 46.82,-41.26 48.24,-39.91 49.68,-38.57 51.13,-37.22 52.58,-35.90 54.05,-34.60 55.54,-33.30 57.03,-32.03 58.55,-30.76 60.07,-29.49 61.61,-28.25 63.15,-27.02 64.72,-25.79 66.28,-24.59 67.67,-23.56"/>
        <lane id="E16_1" index="1" disallow="pedestrian" speed="13.89" length="88.97" shape="20.90,-65.88 22.04,-64.35 23.26,-62.76 24.51,-61.17 25.76,-59.60 27.02,-58.04 28.30,-56.50 29.58,-54.96 30.88,-53.45 32.20,-51.94 33.52,-50.45 34.86,-48.97 36.22,-47.50 37.58,-46.04 38.96,-44.60 40.35,-43.17 41.75,-41.76 43.17,-40.35 44.60,-38.96 46.04,-37.58 47.50,-36.22 48.97,-34.86 50.45,-33.52 51.94,-32.20 53.45,-30.88 54.96,-29.58 56.50,-28.30 58.04,-27.02 59.60,-25.76 61.17,-24.51 62.76,-23.26 64.35,-22.04 65.88,-20.90"/>
    </edge>
    <edge id="E17" from="J10" to="J15" priority="-1" shape="75.00,12.50 73.30,13.64 71.62,14.80 69.94,15.97 68.29,17.15 66.64,18.34 65.01,19.55 63.38,20.77 61.78,22.00 60.18,23.25 58.60,24.51 57.03,25.78 55.48,27.07 53.93,28.36 52.40,29.67 50.88,31.00 49.38,32.33 47.89,33.68 46.41,35.05 44.94,36.42 43.49,37.81 42.05,39.21 40.63,40.62 39.21,42.05 37.81,43.49 36.42,44.94 35.05,46.41 33.68,47.89 32.33,49.38 31.00,50.88 29.67,52.40 28.36,53.93 27.07,55.48 25.78,57.03 24.51,58.60 23.25,60.18 22.00,61.78 20.77,63.38 19.55,65.01 18.34,66.64 17.15,68.29 15.97,69.94 14.80,71.62 13.64,73.30 12.50,75.00">
        <lane id="E17_0" index="0" disallow="pedestrian" speed="13.89" length="88.97" shape="67.67,23.56 66.28,24.59 64.72,25.79 63.15,27.02 61.61,28.25 60.07,29.49 58.55,30.76 57.03,32.03 55.54,33.30 54.05,34.60 52.58,35.90 51.13,37.22 49.68,38.57 48.24,39.91 46.82,41.26 45.41,42.63 44.02,44.01 42.63,45.41 41.26,46.82 39.91,48.24 38.57,49.68 37.22,51.13 35.90,52.58 34.60,54.05 33.30,55.54 32.03,57.03 30.76,58.55 29.49,60.07 28.25,61.61 27.02,63.15 25.79,64.72 24.59,66.28 23.56,67.67"/>
        <lane id="E17_1" index="1" disallow="pedestrian" speed="13.89" length="88.97" shape="65.88,20.90 64.35,22.04 62.76,23.26 61.17,24.51 59.60,25.76 58.04,27.02 56.50,28.30 54.96,29.58 53.45,30.88 51.94,32.20 50.45,33.52 48.97,34.86 47.50,36.22 46.04,37.58 44.60,38.96 43.17,40.35 41.76,41.75 40.35,43.17 38.96,44.60 37.58,46.04 36.22,47.50 34.86,48.97 33.52,50.45 32.20,51.94 30.88,53.45 29.58,54.96 28.30,56.50 27.02,58.04 25.76,59.60 24.51,61.17 23.26,62.76 22.04,64.35 20.90,65.88"/>
    </edge>
    <edge id="E2" from="J6" to="J8" priority="-1">
        <lane id="E2_0" index="0" disallow="pedestrian" speed="13.89" length="17.78" shape="14.56,-81.60 16.12,-78.49"/>
        <lane id="E2_1" index="1" disallow="pedestrian" speed="13.89" length="17.78" shape="11.70,-80.17 13.26,-77.06"/>
    </edge>
    <edge id="E3" from="J1" to="J9" priority="-1">
        <lane id="E3_0" index="0" disallow="pedestrian" speed="13.89" length="17.78" shape="-81.60,-14.56 -78.49,-16.12"/>
        <lane id="E3_1" index="1" disallow="pedestrian" speed="13.89" length="17.78" shape="-80.17,-11.70 -77.06,-13.26"/>
    </edge>
    <edge id="E4" from="J3" to="J10" priority="-1">
        <lane id="E4_0" index="0" disallow="pedestrian" speed="13.89" length="17.78" shape="81.60,14.56 78.49,16.12"/>
        <lane id="E4_1" index="1" disallow="pedestrian" speed="13.89" length="17.78" shape="80.17,11.70 77.06,13.26"/>
    </edge>
    <edge id="E5" from="J4" to="J11" priority="-1">
        <lane id="E5_0" index="0" disallow="pedestrian" speed="13.89" length="17.78" shape="-14.56,81.60 -16.12,78.49"/>
        <lane id="E5_1" index="1" disallow="pedestrian" speed="13.89" length="17.78" shape="-11.70,80.17 -13.26,77.06"/>
    </edge>
    <edge id="E6" from="J12" to="J3" priority="-1">
        <lane id="E6_0" index="0" disallow="pedestrian" speed="13.89" length="17.78" shape="78.49,-16.12 81.60,-14.56"/>
        <lane id="E6_1" index="1" disallow="pedestrian" speed="13.89" length="17.78" shape="77.06,-13.26 80.17,-11.70"/>
    </edge>
    <edge id="E7" from="J13" to="J6" priority="-1">
        <lane id="E7_0" index="0" disallow="pedestrian" speed="13.89" length="17.78" shape="-16.12,-78.49 -14.56,-81.60"/>
        <lane id="E7_1" index="1" disallow="pedestrian" speed="13.89" length="17.78" shape="-13.26,-77.06 -11.70,-80.17"/>
    </edge>
    <edge id="E8" from="J14" to="J1" priority="-1">
        <lane id="E8_0" index="0" disallow="pedestrian" speed="13.89" length="17.78" shape="-78.49,16.12 -81.60,14.56"/>
        <lane id="E8_1" index="1" disallow="pedestrian" speed="13.89" length="17.78" shape="-77.06,13.26 -80.17,11.70"/>
    </edge>
    <edge id="E9" from="J15" to="J4" priority="-1">
        <lane id="E9_0" index="0" disallow="pedestrian" speed="13.89" length="17.78" shape="16.12,78.49 14.56,81.60"/>
        <lane id="E9_1" index="1" disallow="pedestrian" speed="13.89" length="17.78" shape="13.26,77.06 11.70,80.17"/>
    </edge>

    <tlLogic id="J1" type="static" programID="0" offset="0">
        <phase duration="1"  state="ggGGGGGG"/>
        <phase duration="1"  state="GGgGGGGG"/>
    </tlLogic>
    <tlLogic id="J12" type="static" programID="0" offset="0">
        <phase duration="1"  state="GGgg"/>
        <phase duration="1"  state="GgGG"/>
    </tlLogic>
    <tlLogic id="J13" type="static" programID="0" offset="0">
        <phase duration="1"  state="ggGG"/>
        <phase duration="1"  state="GGGg"/>
    </tlLogic>
    <tlLogic id="J14" type="static" programID="0" offset="0">
        <phase duration="1"  state="GGgg"/>
        <phase duration="1"  state="GgGG"/>
    </tlLogic>
    <tlLogic id="J15" type="static" programID="0" offset="0">
        <phase duration="1"  state="GGgg"/>
        <phase duration="1"  state="GgGG"/>
    </tlLogic>
    <tlLogic id="J3" type="static" programID="0" offset="0">
        <phase duration="1"  state="GGGGggGG"/>
        <phase duration="1"  state="GGGGGGgG"/>
    </tlLogic>
    <tlLogic id="J4" type="static" programID="0" offset="0">