<?xml version="1.0" encoding="UTF-8"?>

<!-- generated on 2023-04-17 00:22:19 by Eclipse SUMO netedit Version 1.15.0
<configuration xmlns:xsi="http://www.w3.org/2001/XMLSchema-instance" xsi:noNamespaceSchemaLocation="http://sumo.dlr.de/xsd/netconvertConfiguration.xsd">

    <input>
        <sumo-net-file value="Z:\Users\708891\Desktop\APResearch\Simulations\template.net.xml"/>
    </input>

    <output>
        <output-file value="Z:\Users\708891\Desktop\APResearch\Simulations\superstreet.net.xml"/>
    </output>

    <processing>
        <geometry.min-radius.fix.railways value="false"/>
        <geometry.max-grade.fix value="false"/>
        <offset.disable-normalization value="true"/>
        <lefthand value="0"/>
    </processing>

    <junctions>
        <no-internal-links value="true"/>
        <no-turnarounds value="true"/>
        <junctions.corner-detail value="5"/>
        <junctions.limit-turn-speed value="5.50"/>
        <rectangular-lane-cut value="0"/>
    </junctions>

    <pedestrian>
        <walkingareas value="0"/>
    </pedestrian>

    <netedit>
        <route-files value="Z:\Users\708891\Desktop\APResearch\Simulations\unifiedDistribution.rou.xml"/>
    </netedit>

</configuration>
-->

<net version="1.9" junctionCornerDetail="5" limitTurnSpeed="5.50" xmlns:xsi="http://www.w3.org/2001/XMLSchema-instance" xsi:noNamespaceSchemaLocation="http://sumo.dlr.de/xsd/net_file.xsd">

    <location netOffset="0.00,0.00" convBoundary="-200.00,-200.00,200.00,200.00" origBoundary="-10000000000.00,-10000000000.00,10000000000.00,10000000000.00" projParameter="!"/>

    <edge id="+E" from="J2" to="J3" priority="-1">
        <lane id="+E_0" index="0" allow="pedestrian" speed="13.89" length="100.00" shape="200.00,8.00 103.77,8.00"/>
        <lane id="+E_1" index="1" disallow="pedestrian" speed="13.89" length="100.00" shape="200.00,4.80 103.77,4.80"/>
        <lane id="+E_2" index="2" disallow="pedestrian" speed="13.89" length="100.00" shape="200.00,1.60 103.77,1.60"/>
    </edge>
    <edge id="+N" from="J5" to="J4" priority="-1">
        <lane id="+N_0" index="0" allow="pedestrian" speed="13.89" length="100.00" shape="-8.00,200.00 -8.00,100.00"/>
        <lane id="+N_1" index="1" disallow="pedestrian" speed="13.89" length="100.00" shape="-4.80,200.00 -4.80,100.00"/>
        <lane id="+N_2" index="2" disallow="pedestrian" speed="13.89" length="100.00" shape="-1.60,200.00 -1.60,100.00"/>
    </edge>
    <edge id="+S" from="J7" to="J6" priority="-1">
        <lane id="+S_0" index="0" allow="pedestrian" speed="13.89" length="100.00" shape="8.00,-200.00 8.00,-100.00"/>
        <lane id="+S_1" index="1" disallow="pedestrian" speed="13.89" length="100.00" shape="4.80,-200.00 4.80,-100.00"/>
        <lane id="+S_2" index="2" disallow="pedestrian" speed="13.89" length="100.00" shape="1.60,-200.00 1.60,-100.00"/>
    </edge>
    <edge id="+W" from="J0" to="J1" priority="-1">
        <lane id="+W_0" index="0" allow="pedestrian" speed="13.89" length="100.00" shape="-200.00,-8.00 -103.77,-8.00"/>
        <lane id="+W_1" index="1" disallow="pedestrian" speed="13.89" length="100.00" shape="-200.00,-4.80 -103.77,-4.80"/>
        <lane id="+W_2" index="2" disallow="pedestrian" speed="13.89" length="100.00" shape="-200.00,-1.60 -103.77,-1.60"/>
    </edge>
    <edge id="-E" from="J3" to="J2" priority="-1">
        <lane id="-E_0" index="0" allow="pedestrian" speed="13.89" length="100.00" shape="103.77,-8.00 200.00,-8.00"/>
        <lane id="-E_1" index="1" disallow="pedestrian" speed="13.89" length="100.00" shape="103.77,-4.80 200.00,-4.80"/>
        <lane id="-E_2" index="2" disallow="pedestrian" speed="13.89" length="100.00" shape="103.77,-1.60 200.00,-1.60"/>
    </edge>
    <edge id="-E24" from="J28" to="J6" priority="-1">
        <lane id="-E24_0" index="0" allow="pedestrian" speed="13.89" length="44.22" shape="-8.00,-66.58 -8.00,-100.00"/>
        <lane id="-E24_1" index="1" disallow="pedestrian" speed="13.89" length="44.22" shape="-4.80,-66.58 -4.80,-100.00"/>
        <lane id="-E24_2" index="2" disallow="pedestrian" speed="13.89" length="44.22" shape="-1.60,-66.58 -1.60,-100.00"/>
    </edge>
    <edge id="-E25" from="J4" to="J29" priority="-1">
        <lane id="-E25_0" index="0" allow="pedestrian" speed="13.89" length="44.22" shape="-8.00,100.00 -8.00,66.58"/>
        <lane id="-E25_1" index="1" disallow="pedestrian" speed="13.89" length="44.22" shape="-4.80,100.00 -4.80,66.58"/>
        <lane id="-E25_2" index="2" disallow="pedestrian" speed="13.89" length="44.22" shape="-1.60,100.00 -1.60,66.58"/>
    </edge>
    <edge id="-E45" from="J38" to="J29" priority="-1">
        <lane id="-E45_0" index="0" allow="pedestrian" speed="13.89" length="43.75" shape="8.00,23.60 8.00,47.18"/>
        <lane id="-E45_1" index="1" disallow="pedestrian" speed="13.89" length="43.75" shape="4.80,23.60 4.80,47.21"/>
        <lane id="-E45_2" index="2" disallow="pedestrian" speed="13.89" length="43.75" shape="1.60,23.60 1.60,47.23"/>
    </edge>
    <edge id="-E46" from="J39" to="J28" priority="-1">
        <lane id="-E46_0" index="0" allow="pedestrian" speed="13.89" length="43.75" shape="-8.00,-23.60 -8.00,-47.18"/>
        <lane id="-E46_1" index="1" disallow="pedestrian" speed="13.89" length="43.75" shape="-4.80,-23.60 -4.80,-47.21"/>
        <lane id="-E46_2" index="2" disallow="pedestrian" speed="13.89" length="43.75" shape="-1.60,-23.60 -1.60,-47.23"/>
    </edge>
    <edge id="-N" from="J4" to="J5" priority="-1">
        <lane id="-N_0" index="0" allow="pedestrian" speed="13.89" length="100.00" shape="8.00,100.00 8.00,200.00"/>
        <lane id="-N_1" index="1" disallow="pedestrian" speed="13.89" length="100.00" shape="4.80,100.00 4.80,200.00"/>
        <lane id="-N_2" index="2" disallow="pedestrian" speed="13.89" length="100.00" shape="1.60,100.00 1.60,200.00"/>
    </edge>
    <edge id="-S" from="J6" to="J7" priority="-1">
        <lane id="-S_0" index="0" allow="pedestrian" speed="13.89" length="100.00" shape="-8.00,-100.00 -8.00,-200.00"/>
        <lane id="-S_1" index="1" disallow="pedestrian" speed="13.89" length="100.00" shape="-4.80,-100.00 -4.80,-200.00"/>
        <lane id="-S_2" index="2" disallow="pedestrian" speed="13.89" length="100.00" shape="-1.60,-100.00 -1.60,-200.00"/>
    </edge>
    <edge id="-W" from="J1" to="J0" priority="-1">
        <lane id="-W_0" index="0" allow="pedestrian" speed="13.89" length="100.00" shape="-103.77,8.00 -200.00,8.00"/>
        <lane id="-W_1" index="1" disallow="pedestrian" speed="13.89" length="100.00" shape="-103.77,4.80 -200.00,4.80"/>
        <lane id="-W_2" index="2" disallow="pedestrian" speed="13.89" length="100.00" shape="-103.77,1.60 -200.00,1.60"/>
    </edge>
    <edge id="E18" from="J22" to="J1" priority="-1">
        <lane id="E18_0" index="0" allow="pedestrian" speed="13.89" length="27.95" shape="-78.58,19.66 -100.21,8.84"/>
        <lane id="E18_1" index="1" disallow="pedestrian" speed="13.89" length="27.95" shape="-77.15,16.79 -98.78,5.98"/>
        <lane id="E18_2" index="2" disallow="pedestrian" speed="13.89" length="27.95" shape="-75.72,13.93 -97.35,3.12"/>
    </edge>
    <edge id="E19" from="J1" to="J23" priority="-1">
        <lane id="E19_0" index="0" allow="pedestrian" speed="13.89" length="27.95" shape="-100.21,-8.84 -88.18,-14.85"/>
        <lane id="E19_1" index="1" disallow="pedestrian" speed="13.89" length="27.95" shape="-98.78,-5.98 -86.75,-11.99"/>
        <lane id="E19_2" index="2" disallow="pedestrian" speed="13.89" length="27.95" shape="-97.35,-3.12 -85.32,-9.13"/>
    </edge>
    <edge id="E20" from="J24" to="J3" priority="-1">
        <lane id="E20_0" index="0" allow="pedestrian" speed="13.89" length="27.95" shape="78.58,-19.66 100.21,-8.84"/>
        <lane id="E20_1" index="1" disallow="pedestrian" speed="13.89" length="27.95" shape="77.15,-16.79 98.78,-5.98"/>
        <lane id="E20_2" index="2" disallow="pedestrian" speed="13.89" length="27.95" shape="75.72,-13.93 97.35,-3.12"/>
    </edge>
    <edge id="E21" from="J3" to="J25" priority="-1">
        <lane id="E21_0" index="0" allow="pedestrian" speed="13.89" length="27.95" shape="100.21,8.84 88.18,14.85"/>
        <lane id="E21_1" index="1" disallow="pedestrian" speed="13.89" length="27.95" shape="98.78,5.98 86.75,11.99"/>
        <lane id="E21_2" index="2" disallow="pedestrian" speed="13.89" length="27.95" shape="97.35,3.12 85.32,9.13"/>
    </edge>
    <edge id="E22" from="J23" to="J26" priority="-1">
        <lane id="E22_0" index="0" allow="pedestrian" speed="13.89" length="12.50" shape="-71.00,-20.50 -63.49,-20.50"/>
        <lane id="E22_1" index="1" disallow="pedestrian" speed="13.89" length="12.50" shape="-71.00,-17.30 -63.49,-17.30"/>
        <lane id="E22_2" index="2" disallow="pedestrian" speed="13.89" length="12.50" shape="-71.00,-14.10 -63.49,-14.10"/>
    </edge>
    <edge id="E23" from="J25" to="J27" priority="-1">
        <lane id="E23_0" index="0" allow="pedestrian" speed="13.89" length="12.50" shape="71.00,20.50 63.49,20.50"/>
        <lane id="E23_1" index="1" disallow="pedestrian" speed="13.89" length="12.50" shape="71.00,17.30 63.49,17.30"/>
        <lane id="E23_2" index="2" disallow="pedestrian" speed="13.89" length="12.50" shape="71.00,14.10 63.49,14.10"/>
    </edge>
    <edge id="E24" from="J6" to="J28" priority="-1">
        <lane id="E24_0" index="0" allow="pedestrian" speed="13.89" length="44.22" shape="8.00,-100.00 8.00,-66.58"/>
        <lane id="E24_1" index="1" disallow="pedestrian" speed="13.89" length="44.22" shape="4.80,-100.00 4.80,-66.58"/>
        <lane id="E24_2" index="2" disallow="pedestrian" speed="13.89" length="44.22" shape="1.60,-100.00 1.60,-66.58"/>
    </edge>
    <edge id="E25" from="J29" to="J4" priority="-1">
        <lane id="E25_0" index="0" allow="pedestrian" speed="13.89" length="44.22" shape="8.00,66.58 8.00,100.00"/>
        <lane id="E25_1" index="1" disallow="pedestrian" speed="13.89" length="44.22" shape="4.80,66.58 4.80,100.00"/>
        <lane id="E25_2" index="2" disallow="pedestrian" speed="13.89" length="44.22" shape="1.60,66.58 1.60,100.00"/>
    </edge>
    <edge id="E27" from="J31" to="J28" priority="-1" shape="-50.00,-12.50 -48.31,-13.09 -46.64,-13.71 -45.00,-14.38 -43.39,-15.08 -41.80,-15.83 -40.24,-16.61 -38.70,-17.43 -37.19,-18.29 -35.71,-19.18 -34.25,-20.12 -32.81,-21.09 -31.40,-22.11 -30.02,-23.16 -28.67,-24.25 -27.34,-25.38 -26.03,-26.55 -24.75,-27.76 -23.50,-29.00 -22.28,-30.29 -21.07,-31.61 -19.90,-32.97 -18.75,-34.37 -17.63,-35.81 -16.53,-37.29 -15.46,-38.81 -14.41,-40.37 -13.39,-41.96 -12.40,-43.60 -11.43,-45.27 -10.49,-46.98 -9.57,-48.73 -8.68,-50.52 -7.81,-52.34 -6.97,-54.21 -6.16,-56.11 -5.37,-58.06 -4.61,-60.04 -3.87,-62.06 -3.16,-64.12 -2.48,-66.22 -1.82,-68.36 -1.19,-70.53 -0.58,-72.75 0.00,-75.00">
        <lane id="E27_0" index="0" disallow="pedestrian" speed="13.89" length="48.54" shape="-31.95,-27.77 -31.73,-27.95 -30.49,-29.00 -29.28,-30.08 -28.09,-31.21 -26.93,-32.35 -25.79,-33.56 -24.66,-34.80 -23.57,-36.06 -22.50,-37.37 -21.45,-38.72 -20.42,-40.10 -19.41,-41.53 -18.42,-43.01 -17.47,-44.50 -16.53,-46.05 -15.61,-47.63 -15.08,-48.60"/>
        <lane id="E27_1" index="1" disallow="pedestrian" speed="13.89" length="48.54" shape="-30.79,-24.59 -29.69,-25.48 -28.39,-26.59 -27.11,-27.73 -25.86,-28.91 -24.64,-30.12 -23.45,-31.38 -22.27,-32.67 -21.12,-34.00 -20.00,-35.37 -18.90,-36.78 -17.83,-38.23 -16.78,-39.72 -15.75,-41.25 -14.75,-42.81 -13.78,-44.42 -12.82,-46.06 -11.89,-47.76"/>
    </edge>
    <edge id="E29" from="J33" to="J29" priority="-1" shape="50.00,12.50 48.31,13.09 46.64,13.71 45.00,14.38 43.39,15.08 41.80,15.83 40.24,16.61 38.70,17.43 37.19,18.29 35.71,19.18 34.25,20.12 32.81,21.09 31.40,22.11 30.02,23.16 28.67,24.25 27.34,25.38 26.03,26.55 24.75,27.76 23.50,29.00 22.28,30.29 21.07,31.61 19.90,32.97 18.75,34.37 17.63,35.81 16.53,37.29 15.46,38.81 14.41,40.37 13.39,41.96 12.40,43.60 11.43,45.27 10.49,46.98 9.57,48.73 8.68,50.52 7.81,52.34 6.97,54.21 6.16,56.11 5.37,58.06 4.61,60.04 3.87,62.06 3.16,64.12 2.48,66.22 1.82,68.36 1.19,70.53 0.58,72.75 0.00,75.00">
        <lane id="E29_0" index="0" disallow="pedestrian" speed="13.89" length="48.54" shape="31.95,27.77 31.73,27.95 30.49,29.00 29.28,30.08 28.09,31.21 26.93,32.35 25.79,33.56 24.66,34.80 23.57,36.06 22.50,37.37 21.45,38.72 20.42,40.10 19.41,41.53 18.42,43.01 17.47,44.50 16.53,46.05 15.61,47.63 15.08,48.60"/>
        <lane id="E29_1" index="1" disallow="pedestrian" speed="13.89" length="48.54" shape="30.79,24.59 29.69,25.48 28.39,26.59 27.11,27.73 25.86,28.91 24.64,30.12 23.45,31.38 22.27,32.67 21.12,34.00 20.00,35.37 18.90,36.78 17.83,38.23 16.78,39.72 15.75,41.25 14.75,42.81 13.78,44.42 12.82,46.06 11.89,47.76"/>
    </edge>
    <edge id="E33" from="J34" to="J22" priority="-1">
        <lane id="E33_0" index="0" allow="pedestrian" speed="13.89" length="50.00" shape="-49.84,20.50 -75.00,20.50"/>
        <lane id="E33_1" index="1" disallow="pedestrian" speed="13.89" length="50.00" shape="-49.84,17.30 -75.00,17.30"/>
        <lane id="E33_2" index="2" disallow="pedestrian" speed="13.89" length="50.00" shape="-49.84,14.10 -75.00,14.10"/>
    </edge>
    <edge id="E34" from="J37" to="J24" priority="-1">
        <lane id="E34_0" index="0" allow="pedestrian" speed="13.89" length="50.00" shape="49.84,-20.50 75.00,-20.50"/>
        <lane id="E34_1" index="1" disallow="pedestrian" speed="13.89" length="50.00" shape="49.84,-17.30 75.00,-17.30"/>
        <lane id="E34_2" index="2" disallow="pedestrian" speed="13.89" length="50.00" shape="49.84,-14.10 75.00,-14.10"/>
    </edge>
    <edge id="E35" from="J34" to="J23" priority="-1" shape="-25.00,12.50 -28.17,11.69 -31.24,10.89 -34.21,10.08 -37.07,9.27 -39.83,8.47 -42.48,7.66 -45.03,6.85 -47.48,6.05 -49.82,5.24 -52.06,4.44 -54.19,3.63 -56.22,2.82 -58.14,2.02 -59.96,1.21 -61.68,0.40 -63.29,-0.40 -64.80,-1.21 -66.21,-2.02 -67.51,-2.82 -68.70,-3.63 -69.80,-4.44 -70.79,-5.24 -71.67,-6.05 -72.45,-6.85 -73.13,-7.66 -73.70,-8.47 -74.17,-9.27 -74.53,-10.08 -74.79,-10.89 -74.95,-11.69 -75.00,-12.50">
        <lane id="E35_0" index="0" disallow="pedestrian" speed="13.89" length="57.92" shape="-49.37,10.47 -51.41,9.77 -53.72,8.94 -55.93,8.10 -58.03,7.26 -60.04,6.43 -61.96,5.57 -63.77,4.72 -65.49,3.87 -67.13,2.99 -68.66,2.11 -70.12,1.21 -71.47,0.29 -72.73,-0.64 -73.92,-1.60 -75.01,-2.60 -76.01,-3.63 -76.93,-4.73 -77.73,-5.87 -77.80,-5.99"/>
        <lane id="E35_1" index="1" disallow="pedestrian" speed="13.89" length="57.92" shape="-48.58,7.36 -50.35,6.75 -52.61,5.94 -54.77,5.12 -56.82,4.30 -58.77,3.49 -60.63,2.66 -62.38,1.84 -64.02,1.02 -65.58,0.19 -67.03,-0.64 -68.38,-1.48 -69.62,-2.32 -70.78,-3.17 -71.83,-4.03 -72.78,-4.90 -73.64,-5.78 -74.16,-6.41"/>
    </edge>
    <edge id="E36" from="J37" to="J25" priority="-1" shape="25.00,-12.50 28.17,-11.69 31.24,-10.89 34.21,-10.08 37.07,-9.27 39.83,-8.47 42.48,-7.66 45.03,-6.85 47.48,-6.05 49.82,-5.24 52.06,-4.44 54.19,-3.63 56.22,-2.82 58.14,-2.02 59.96,-1.21 61.68,-0.40 63.29,0.40 64.80,1.21 66.21,2.02 67.51,2.82 68.70,3.63 69.80,4.44 70.79,5.24 71.67,6.05 72.45,6.85 73.13,7.66 73.70,8.47 74.17,9.27 74.53,10.08 74.79,10.89 74.95,11.69 75.00,12.50">
        <lane id="E36_0" index="0" disallow="pedestrian" speed="13.89" length="57.92" shape="49.37,-10.47 51.41,-9.77 53.72,-8.94 55.93,-8.10 58.03,-7.26 60.04,-6.43 61.96,-5.57 63.77,-4.72 65.49,-3.87 67.13,-2.99 68.66,-2.11 70.12,-1.21 71.47,-0.29 72.73,0.64 73.92,1.60 75.01,2.60 76.01,3.63 76.93,4.73 77.73,5.87 77.80,5.99"/>
        <lane id="E36_1" index="1" disallow="pedestrian" speed="13.89" length="57.92" shape="48.58,-7.36 50.35,-6.75 52.61,-5.94 54.77,-5.12 56.82,-4.30 58.77,-3.49 60.63,-2.66 62.38,-1.84 64.02,-1.02 65.58,-0.19 67.03,0.64 68.38,1.48 69.62,2.32 70.78,3.17 71.83,4.03 72.78,4.90 73.64,5.78 74.16,6.41"/>
    </edge>
    <edge id="E37" from="J26" to="J38" priority="-1" shape="-62.50,-12.50 -59.17,-11.82 -55.93,-11.15 -52.78,-10.47 -49.72,-9.80 -46.75,-9.12 -43.87,-8.45 -41.09,-7.77 -38.39,-7.09 -35.79,-6.42 -33.28,-5.74 -30.86,-5.07 -28.53,-4.39 -26.30,-3.72 -24.15,-3.04 -22.10,-2.36 -20.13,-1.69 -18.26,-1.01 -16.48,-0.34 -14.79,0.34 -13.19,1.01 -11.69,1.69 -10.27,2.36 -8.95,3.04 -7.72,3.72 -6.57,4.39 -5.52,5.07 -4.57,5.74 -3.70,6.42 -2.92,7.09 -2.24,7.77 -1.64,8.45 -1.14,9.12 -0.73,9.80 -0.41,10.47 -0.18,11.15 -0.05,11.82 0.00,12.50">
        <lane id="E37_0" index="0" disallow="pedestrian" speed="13.89" length="69.51" shape="-60.52,-16.99 -58.20,-16.52 -54.94,-15.85 -51.76,-15.16 -48.67,-14.48 -45.67,-13.80 -42.76,-13.12 -39.93,-12.43 -37.21,-11.74 -34.56,-11.06 -32.01,-10.37 -29.55,-9.69 -27.17,-8.99 -24.89,-8.31 -22.67,-7.61 -20.57,-6.91 -18.54,-6.22 -16.59,-5.51 -14.74,-4.81 -12.97,-4.10 -11.27,-3.39 -9.68,-2.67 -8.15,-1.95 -6.69,-1.20 -5.35,-0.46 -4.06,0.30 -2.83,1.09 -1.71,1.88 -0.66,2.71 0.34,3.57 1.26,4.48 2.08,5.42 2.84,6.44 3.49,7.52 4.04,8.66 4.46,9.91 4.60,10.65"/>
        <lane id="E37_1" index="1" disallow="pedestrian" speed="13.89" length="69.51" shape="-60.53,-13.73 -58.85,-13.39 -55.60,-12.72 -52.44,-12.03 -49.37,-11.36 -46.39,-10.68 -43.50,-10.01 -40.70,-9.32 -38.00,-8.64 -35.38,-7.97 -32.86,-7.28 -30.42,-6.61 -28.08,-5.92 -25.83,-5.25 -23.66,-4.56 -21.59,-3.88 -19.60,-3.20 -17.70,-2.51 -15.90,-1.83 -14.18,-1.14 -12.55,-0.46 -11.02,0.24 -9.56,0.92 -8.20,1.63 -6.93,2.33 -5.73,3.03 -4.62,3.74 -3.62,4.45 -2.69,5.18 -1.83,5.92 -1.07,6.67 -0.40,7.44 0.19,8.23 0.68,9.04 1.07,9.87 1.37,10.74 1.40,10.90"/>
    </edge>
    <edge id="E38" from="J27" to="J39" priority="-1" shape="62.50,12.50 59.17,11.82 55.93,11.15 52.78,10.47 49.72,9.80 46.75,9.12 43.87,8.45 41.09,7.77 38.39,7.09 35.79,6.42 33.28,5.74 30.86,5.07 28.53,4.39 26.30,3.72 24.15,3.04 22.10,2.36 20.13,1.69 18.26,1.01 16.48,0.34 14.79,-0.34 13.19,-1.01 11.69,-1.69 10.27,-2.36 8.95,-3.04 7.72,-3.72 6.57,-4.39 5.52,-5.07 4.57,-5.74 3.70,-6.42 2.92,-7.09 2.24,-7.77 1.64,-8.45 1.14,-9.12 0.73,-9.80 0.41,-10.47 0.18,-11.15 0.05,-11.82 0.00,-12.50">
        <lane id="E38_0" index="0" disallow="pedestrian" speed="13.89" length="69.51" shape="60.52,16.99 58.20,16.52 54.94,15.85 51.76,15.16 48.67,14.48 45.67,13.80 42.76,13.12 39.93,12.43 37.21,11.74 34.56,11.06 32.01,10.37 29.55,9.69 27.17,8.99 24.89,8.31 22.67,7.61 20.57,6.91 18.54,6.22 16.59,5.51 14.74,4.81 12.97,4.10 11.27,3.39 9.68,2.67 8.15,1.95 6.69,1.20 5.35,0.46 4.06,-0.30 2.83,-1.09 1.71,-1.88 0.66,-2.71 -0.34,-3.57 -1.26,-4.48 -2.08,-5.42 -2.84,-6.44 -3.49,-7.52 -4.04,-8.66 -4.46,-9.91 -4.60,-10.65"/>
        <lane id="E38_1" index="1" disallow="pedestrian" speed="13.89" length="69.51" shape="60.53,13.73 58.85,13.39 55.60,12.72 52.44,12.03 49.37,11.36 46.39,10.68 43.50,10.01 40.70,9.32 38.00,8.64 35.38,7.97 32.86,7.28 30.42,6.61 28.08,5.92 25.83,5.25 23.66,4.56 21.59,3.88 19.60,3.20 17.70,2.51 15.90,1.83 14.18,1.14 12.55,0.46 11.02,-0.24 9.56,-0.92 8.20,-1.63 6.93,-2.33 5.73,-3.03 4.62,-3.74 3.62,-4.45 2.69,-5.18 1.83,-5.92 1.07,-6.67 0.40,-7.44 -0.19,-8.23 -0.68,-9.04 -1.07,-9.87 -1.37,-10.74 -1.40,-10.90"/>
    </edge>
    <edge id="E39" from="J27" to="J33" priority="-1">
        <lane id="E39_0" index="0" allow="pedestrian" speed="13.89" length="31.33" shape="60.50,20.50 45.07,20.50"/>
        <lane id="E39_1" index="1" disallow="pedestrian" speed="13.89" length="31.33" shape="60.51,17.30 45.07,17.30"/>
        <lane id="E39_2" index="2" disallow="pedestrian" speed="13.89" length="31.33" shape="60.53,14.10 45.07,14.10"/>
    </edge>
    <edge id="E40" from="J33" to="J38" priority="-1">
        <lane id="E40_0" index="0" allow="pedestrian" speed="13.89" length="40.93" shape="29.91,20.50 11.10,20.50"/>
        <lane id="E40_1" index="1" disallow="pedestrian" speed="13.89" length="40.93" shape="29.91,17.30 11.10,17.30"/>
        <lane id="E40_2" index="2" disallow="pedestrian" speed="13.89" length="40.93" shape="29.91,14.10 11.10,14.10"/>
    </edge>
    <edge id="E41" from="J38" to="J34" priority="-1">
        <lane id="E41_0" index="0" allow="pedestrian" speed="13.89" length="25.00" shape="-1.50,20.50 -7.75,20.50"/>
        <lane id="E41_1" index="1" disallow="pedestrian" speed="13.89" length="25.00" shape="-1.50,17.30 -7.75,17.30"/>
        <lane id="E41_2" index="2" disallow="pedestrian" speed="13.89" length="25.00" shape="-1.50,14.10 -7.75,14.10"/>
    </edge>
    <edge id="E42" from="J26" to="J31" priority="-1">
        <lane id="E42_0" index="0" allow="pedestrian" speed="13.89" length="31.33" shape="-60.50,-20.50 -45.07,-20.50"/>
        <lane id="E42_1" index="1" disallow="pedestrian" speed="13.89" length="31.33" shape="-60.51,-17.30 -45.07,-17.30"/>
        <lane id="E42_2" index="2" disallow="pedestrian" speed="13.89" length="31.33" shape="-60.53,-14.10 -45.07,-14.10"/>
    </edge>
    <edge id="E43" from="J31" to="J39" priority="-1">
        <lane id="E43_0" index="0" allow="pedestrian" speed="13.89" length="40.93" shape="-29.91,-20.50 -11.10,-20.50"/>
        <lane id="E43_1" index="1" disallow="pedestrian" speed="13.89" length="40.93" shape="-29.91,-17.30 -11.10,-17.30"/>
        <lane id="E43_2" index="2" disallow="pedestrian" speed="13.89" length="40.93" shape="-29.91,-14.10 -11.10,-14.10"/>
    </edge>
    <edge id="E44" from="J39" to="J37" priority="-1">
        <lane id="E44_0" index="0" allow="pedestrian" speed="13.89" length="25.00" shape="1.50,-20.50 7.75,-20.50"/>
        <lane id="E44_1" index="1" disallow="pedestrian" speed="13.89" length="25.00" shape="1.50,-17.30 7.75,-17.30"/>
        <lane id="E44_2" index="2" disallow="pedestrian" speed="13.89" length="25.00" shape="1.50,-14.10 7.75,-14.10"/>
    </edge>
    <edge id="E46" from="J28" to="J37" priority="-1" shape="0.00,-75.00 0.01,-72.06 0.06,-69.19 0.13,-66.39 0.23,-63.66 0.35,-61.00 0.51,-58.42 0.69,-55.90 0.91,-53.46 1.15,-51.08 1.42,-48.78 1.71,-46.55 2.04,-44.39 2.40,-42.30 2.78,-40.28 3.19,-38.33 3.63,-36.45 4.10,-34.64 4.59,-32.91 5.12,-31.24 5.67,-29.65 6.25,-28.12 6.86,-26.67 7.50,-25.29 8.16,-23.98 8.86,-22.74 9.58,-21.57 10.33,-20.47 11.11,-19.44 11.92,-18.49 12.76,-17.60 13.62,-16.79 14.51,-16.04 15.43,-15.37 16.38,-14.77 17.36,-14.24 18.37,-13.78 19.40,-13.39 20.46,-13.07 21.56,-12.82 22.68,-12.64 23.82,-12.54 25.00,-12.50">
        <lane id="E46_0" index="0" allow="pedestrian" speed="13.89" length="54.26" shape="9.69,-47.30 9.94,-45.67 10.27,-43.72 10.63,-41.84 11.00,-40.06 11.40,-38.37 11.82,-36.73 12.25,-35.21 12.43,-34.66"/>
        <lane id="E46_1" index="1" disallow="pedestrian" speed="13.89" length="54.26" shape="6.46,-47.28 6.78,-45.16 7.12,-43.15 7.49,-41.22 7.88,-39.37 8.29,-37.60 8.73,-35.90 9.19,-34.29 9.68,-32.75 10.18,-31.28 10.74,-29.82"/>
        <lane id="E46_2" index="2" disallow="pedestrian" speed="13.89" length="54.26" shape="3.23,-47.26 3.29,-46.77 3.62,-44.65 3.97,-42.58 4.35,-40.59 4.75,-38.68 5.18,-36.83 5.64,-35.06 6.12,-33.37 6.64,-31.74 7.17,-30.19 7.74,-28.71 8.32,-27.32 8.94,-25.99 9.21,-25.45"/>
    </edge>
    <edge id="E47" from="J29" to="J34" priority="-1" shape="0.00,75.00 -0.01,72.06 -0.06,69.19 -0.13,66.39 -0.23,63.66 -0.35,61.00 -0.51,58.42 -0.69,55.90 -0.91,53.46 -1.15,51.08 -1.42,48.78 -1.71,46.55 -2.04,44.39 -2.40,42.30 -2.78,40.28 -3.19,38.33 -3.63,36.45 -4.10,34.64 -4.59,32.91 -5.12,31.24 -5.67,29.65 -6.25,28.12 -6.86,26.67 -7.50,25.29 -8.16,23.98 -8.86,22.74 -9.58,21.57 -10.33,20.47 -11.11,19.44 -11.92,18.49 -12.76,17.60 -13.62,16.79 -14.51,16.04 -15.43,15.37 -16.38,14.77 -17.36,14.24 -18.37,13.78 -19.40,13.39 -20.46,13.07 -21.56,12.82 -22.68,12.64 -23.82,12.54 -25.00,12.50">
        <lane id="E47_0" index="0" allow="pedestrian" speed="13.89" length="54.26" shape="-9.69,47.30 -9.94,45.67 -10.27,43.72 -10.63,41.84 -11.00,40.06 -11.40,38.37 -11.82,36.73 -12.25,35.21 -12.43,34.66"/>
        <lane id="E47_1" index="1" disallow="pedestrian" speed="13.89" length="54.26" shape="-6.46,47.28 -6.78,45.16 -7.12,43.15 -7.49,41.22 -7.88,39.37 -8.29,37.60 -8.73,35.90 -9.19,34.29 -9.68,32.75 -10.18,31.28 -10.74,29.82"/>
        <lane id="E47_2" index="2" disallow="pedestrian" speed="13.89" length="54.26" shape="-3.23,47.26 -3.29,46.77 -3.62,44.65 -3.97,42.58 -4.35,40.59 -4.75,38.68 -5.18,36.83 -5.64,35.06 -6.12,33.37 -6.64,31.74 -7.17,30.19 -7.74,28.71 -8.32,27.32 -8.94,25.99 -9.21,25.45"/>
    </edge>

    <tlLogic id="J23" type="static" programID="0" offset="0">
        <phase duration="22" state="GGrr"/>
        <phase duration="3"  state="yyrr"/>
        <phase duration="22" state="rrGG"/>
        <phase duration="3"  state="rryy"/>
    </tlLogic>
    <tlLogic id="J25" type="static" programID="0" offset="0">
        <phase duration="22" state="GGrr"/>
        <phase duration="3"  state="yyrr"/>
        <phase duration="22" state="rrGG"/>
        <phase duration="3"  state="rryy"/>
    </tlLogic>
    <tlLogic id="J28" type="static" programID="0" offset="0">
        <phase duration="42" state="GGGGgg"/>
    </tlLogic>
    <tlLogic id="J29" type="static" programID="0" offset="0">
        <phase duration="42" state="GGggGG"/>
    </tlLogic>
    <tlLogic id="J34" type="static" programID="0" offset="0">
        <phase duration="20" state="GrGGrrrg"/>
        <phase duration="3"  state="gryrrrrG"/>
        <phase duration="20" state="grrrGrGG"/>
        <phase duration="3"  state="grrryryG"/>
        <phase duration="10" state="GrrrrGrG"/>
        <phase duration="3"  state="grrrryrg"/>
        <phase duration="10" state="gGrGrrrg"/>
        <phase duration="3"  state="gyryrrrg"/>
    </tlLogic>
    <tlLogic id="J37" type="static" programID="0" offset="0">
        <phase duration="20" state="GrGGrrrg"/>
        <phase duration="3"  state="gryrrrrG"/>
        <phase duration="20" state="grrrGrGG"/>
        <phase duration="3"  state="grrryryG"/>
        <phase duration="10" state="GrrrrGrG"/>
        <phase duration="3"  state="grrrryrg"/>
        <phase duration="10" state="gGrGrrrg"/>
        <phase duration="3"  state="gyryrrrg"/>
    </tlLogic>
    <tlLogic id="J38" type="static" programID="0" offset="0">
        <phase duration="12" state="GGrrg"/>
        <phase duration="3"  state="yyrrg"/>
        <phase duration="12" state="rrGGG"/>
        <phase duration="3"  state="rryyg"/>
    </tlLogic>
    <tlLogic id="J39" type="static" programID="0" offset="0">
        <phase duration="12" state="GGGrr"/>
        <phase duration="3"  state="yygrr"/>
        <phase duration="12" state="rrgGG"/>
        <phase duration="3"  state="rrgyy"/>
    </tlLogic>

    <junction id="J0" type="dead_end" x="-200.00" y="0.00" incLanes="-W_0 -W_1 -W_2" intLanes="" shape="-200.00,0.00 -200.00,9.60 -200.00,0.00"/>
    <junction id="J1" type="priority" x="-100.00" y="0.00" incLanes="E18_0 E18_1 E18_2 +W_0 +W_1 +W_2" intLanes="" shape="-100.92,10.27 -96.63,1.68 -98.13,0.56 -98.32,0.00 -98.13,-0.56 -97.57,-1.12 -96.63,-1.68 -100.92,-10.27 -101.92,-9.81 -102.29,-9.69 -102.67,-9.63 -103.14,-9.60 -103.77,-9.60 -103.77,9.60 -102.67,9.63 -102.29,9.69 -101.92,9.81 -101.49,9.99">
        <request index="0" response="0000" foes="0000"/>
        <request index="1" response="0000" foes="0000"/>
        <request index="2" response="0000" foes="0000"/>
        <request index="3" response="0000" foes="0000"/>
    </junction>
    <junction id="J2" type="dead_end" x="200.00" y="0.00" incLanes="-E_0 -E_1 -E_2" intLanes="" shape="200.00,0.00 200.00,-9.60 200.00,0.00"/>
    <junction id="J22" type="priority" x="-75.00" y="12.50" incLanes="E33_0 E33_1 E33_2" intLanes="" shape="-75.00,22.10 -75.00,12.50 -79.29,21.09 -77.79,21.79 -77.23,21.96 -76.65,22.06 -75.95,22.09">
        <request index="0" response="00" foes="00"/>
        <request index="1" response="00" foes="00"/>
    </junction>
    <junction id="J23" type="traffic_light" x="-75.00" y="-12.50" incLanes="E35_0 E35_1 E19_0 E19_1 E19_2" intLanes="" shape="-79.55,-5.79 -72.23,-6.63 -73.79,-8.42 -74.64,-9.89 -74.79,-11.03 -74.23,-11.85 -72.97,-12.34 -71.00,-12.50 -71.00,-22.10 -75.01,-21.96 -77.95,-21.53 -80.32,-20.77 -82.61,-19.66 -85.30,-18.18 -88.90,-16.28 -84.61,-7.70 -82.70,-8.16 -81.82,-7.98 -81.01,-7.52 -80.25,-6.79">
        <request index="0" response="1100" foes="1100"/>
        <request index="1" response="1100" foes="1100"/>
        <request index="2" response="0000" foes="0011"/>
        <request index="3" response="0000" foes="0011"/>
    </junction>
    <junction id="J24" type="priority" x="75.00" y="-12.50" incLanes="E34_0 E34_1 E34_2" intLanes="" shape="75.00,-12.50 79.29,-21.09 77.79,-21.79 77.23,-21.96 76.65,-22.06 75.95,-22.09 75.00,-22.10">
        <request index="0" response="00" foes="00"/>
        <request index="1" response="00" foes="00"/>
    </junction>
    <junction id="J25" type="traffic_light" x="75.00" y="12.50" incLanes="E21_0 E21_1 E21_2 E36_0 E36_1" intLanes="" shape="88.90,16.28 84.61,7.70 82.70,8.16 81.82,7.98 81.01,7.52 80.25,6.79 79.55,5.79 72.23,6.63 73.79,8.42 74.64,9.89 74.79,11.03 74.23,11.85 72.97,12.34 71.00,12.50 71.00,22.10 75.01,21.96 77.95,21.53 80.32,20.77 82.61,19.66 85.30,18.18">
        <request index="0" response="0000" foes="1100"/>
        <request index="1" response="0000" foes="1100"/>
        <request index="2" response="0011" foes="0011"/>
        <request index="3" response="0011" foes="0011"/>
    </junction>
    <junction id="J26" type="priority" x="-62.50" y="-12.50" incLanes="E22_0 E22_1 E22_2" intLanes="" shape="-60.54,-12.10 -60.49,-22.10 -63.49,-22.10 -63.49,-12.50 -62.39,-12.46 -62.00,-12.41 -61.62,-12.34 -61.16,-12.23">
        <request index="0" response="00" foes="00"/>
        <request index="1" response="00" foes="00"/>
    </junction>