<?xml version="1.0" encoding="UTF-8"?>

<!-- generated on 2023-04-17 08:06:02 by Eclipse SUMO netedit Version 1.15.0
<configuration xmlns:xsi="http://www.w3.org/2001/XMLSchema-instance" xsi:noNamespaceSchemaLocation="http://sumo.dlr.de/xsd/netconvertConfiguration.xsd">

    <input>
        <sumo-net-file value="Z:\Users\708891\Desktop\APResearch\Simulations\template.net.xml"/>
    </input>

    <output>
        <output-file value="Z:\Users\708891\Desktop\APResearch\Simulations\threeLevelDiamond.net.xml"/>
    </output>

    <processing>
        <geometry.min-radius.fix.railways value="false"/>
        <geometry.max-grade.fix value="false"/>
        <offset.disable-normalization value="true"/>
        <lefthand value="0"/>
    </processing>

    <junctions>
        <no-internal-links value="true"/>
        <no-turnarounds value="true"/>
        <junctions.corner-detail value="5"/>
        <junctions.limit-turn-speed value="5.50"/>
        <rectangular-lane-cut value="0"/>
    </junctions>

    <pedestrian>
        <walkingareas value="0"/>
    </pedestrian>

    <netedit>
        <route-files value="Z:\Users\708891\Desktop\APResearch\Simulations\unifiedDistribution.rou.xml"/>
    </netedit>

</configuration>
-->

<net version="1.9" junctionCornerDetail="5" limitTurnSpeed="5.50" xmlns:xsi="http://www.w3.org/2001/XMLSchema-instance" xsi:noNamespaceSchemaLocation="http://sumo.dlr.de/xsd/net_file.xsd">

    <location netOffset="0.00,0.00" convBoundary="-200.00,-200.00,200.00,200.00" origBoundary="-10000000000.00,-10000000000.00,10000000000.00,10000000000.00" projParameter="!"/>

    <edge id="+E" from="J2" to="J3" priority="-1">
        <lane id="+E_0" index="0" allow="pedestrian" speed="13.89" length="112.02" shape="200.00,8.00 97.39,8.00"/>
        <lane id="+E_1" index="1" disallow="pedestrian" speed="13.89" length="112.02" shape="200.00,4.80 97.39,4.80"/>
        <lane id="+E_2" index="2" disallow="pedestrian" speed="13.89" length="112.02" shape="200.00,1.60 97.39,1.60"/>
    </edge>
    <edge id="+N" from="J5" to="J4" priority="-1">
        <lane id="+N_0" index="0" allow="pedestrian" speed="13.89" length="112.02" shape="-8.00,200.00 -8.00,97.39"/>
        <lane id="+N_1" index="1" disallow="pedestrian" speed="13.89" length="112.02" shape="-4.80,200.00 -4.80,97.39"/>
        <lane id="+N_2" index="2" disallow="pedestrian" speed="13.89" length="112.02" shape="-1.60,200.00 -1.60,97.39"/>
    </edge>
    <edge id="+S" from="J7" to="J6" priority="-1">
        <lane id="+S_0" index="0" allow="pedestrian" speed="13.89" length="112.02" shape="8.00,-200.00 8.00,-97.39"/>
        <lane id="+S_1" index="1" disallow="pedestrian" speed="13.89" length="112.02" shape="4.80,-200.00 4.80,-97.39"/>
        <lane id="+S_2" index="2" disallow="pedestrian" speed="13.89" length="112.02" shape="1.60,-200.00 1.60,-97.39"/>
    </edge>
    <edge id="+W" from="J0" to="J1" priority="-1">
        <lane id="+W_0" index="0" allow="pedestrian" speed="13.89" length="112.02" shape="-200.00,-8.00 -97.39,-8.00"/>
        <lane id="+W_1" index="1" disallow="pedestrian" speed="13.89" length="112.02" shape="-200.00,-4.80 -97.39,-4.80"/>
        <lane id="+W_2" index="2" disallow="pedestrian" speed="13.89" length="112.02" shape="-200.00,-1.60 -97.39,-1.60"/>
    </edge>
    <edge id="-E" from="J3" to="J2" priority="-1">
        <lane id="-E_0" index="0" allow="pedestrian" speed="13.89" length="112.02" shape="97.39,-8.00 200.00,-8.00"/>
        <lane id="-E_1" index="1" disallow="pedestrian" speed="13.89" length="112.02" shape="97.39,-4.80 200.00,-4.80"/>
        <lane id="-E_2" index="2" disallow="pedestrian" speed="13.89" length="112.02" shape="97.39,-1.60 200.00,-1.60"/>
    </edge>
    <edge id="-E0" from="J4" to="J6" priority="-1">
        <lane id="-E0_0" index="0" allow="pedestrian" speed="13.89" length="175.96" shape="-8.00,83.17 -8.00,-83.17"/>
        <lane id="-E0_1" index="1" disallow="pedestrian" speed="13.89" length="175.96" shape="-4.80,83.17 -4.80,-83.17"/>
        <lane id="-E0_2" index="2" disallow="pedestrian" speed="13.89" length="175.96" shape="-1.60,83.17 -1.60,-83.17"/>
    </edge>
    <edge id="-E1" from="J1" to="J3" priority="-1">
        <lane id="-E1_0" index="0" allow="pedestrian" speed="13.89" length="175.96" shape="-83.17,-8.00 83.17,-8.00"/>
        <lane id="-E1_1" index="1" disallow="pedestrian" speed="13.89" length="175.96" shape="-83.17,-4.80 83.17,-4.80"/>
        <lane id="-E1_2" index="2" disallow="pedestrian" speed="13.89" length="175.96" shape="-83.17,-1.60 83.17,-1.60"/>
    </edge>
    <edge id="-N" from="J4" to="J5" priority="-1">
        <lane id="-N_0" index="0" allow="pedestrian" speed="13.89" length="112.02" shape="8.00,97.39 8.00,200.00"/>
        <lane id="-N_1" index="1" disallow="pedestrian" speed="13.89" length="112.02" shape="4.80,97.39 4.80,200.00"/>
        <lane id="-N_2" index="2" disallow="pedestrian" speed="13.89" length="112.02" shape="1.60,97.39 1.60,200.00"/>
    </edge>
    <edge id="-S" from="J6" to="J7" priority="-1">
        <lane id="-S_0" index="0" allow="pedestrian" speed="13.89" length="112.02" shape="-8.00,-97.39 -8.00,-200.00"/>
        <lane id="-S_1" index="1" disallow="pedestrian" speed="13.89" length="112.02" shape="-4.80,-97.39 -4.80,-200.00"/>
        <lane id="-S_2" index="2" disallow="pedestrian" speed="13.89" length="112.02" shape="-1.60,-97.39 -1.60,-200.00"/>
    </edge>
    <edge id="-W" from="J1" to="J0" priority="-1">
        <lane id="-W_0" index="0" allow="pedestrian" speed="13.89" length="112.02" shape="-97.39,8.00 -200.00,8.00"/>
        <lane id="-W_1" index="1" disallow="pedestrian" speed="13.89" length="112.02" shape="-97.39,4.80 -200.00,4.80"/>
        <lane id="-W_2" index="2" disallow="pedestrian" speed="13.89" length="112.02" shape="-97.39,1.60 -200.00,1.60"/>
    </edge>
    <edge id="E0" from="J6" to="J4" priority="-1">
        <lane id="E0_0" index="0" allow="pedestrian" speed="13.89" length="175.96" shape="8.00,-83.17 8.00,83.17"/>
        <lane id="E0_1" index="1" disallow="pedestrian" speed="13.89" length="175.96" shape="4.80,-83.17 4.80,83.17"/>
        <lane id="E0_2" index="2" disallow="pedestrian" speed="13.89" length="175.96" shape="1.60,-83.17 1.60,83.17"/>
    </edge>
    <edge id="E1" from="J3" to="J1" priority="-1">
        <lane id="E1_0" index="0" allow="pedestrian" speed="13.89" length="175.96" shape="83.17,8.00 -83.17,8.00"/>
        <lane id="E1_1" index="1" disallow="pedestrian" speed="13.89" length="175.96" shape="83.17,4.80 -83.17,4.80"/>
        <lane id="E1_2" index="2" disallow="pedestrian" speed="13.89" length="175.96" shape="83.17,1.60 -83.17,1.60"/>
    </edge>
    <edge id="E10" from="J11" to="J6" priority="-1" shape="-37.50,-37.50 -36.51,-40.38 -35.53,-43.12 -34.54,-45.71 -33.55,-48.17 -32.57,-50.50 -31.58,-52.70 -30.59,-54.80 -29.61,-56.78 -28.62,-58.66 -27.63,-60.45 -26.64,-62.15 -25.66,-63.78 -24.67,-65.32 -23.68,-66.80 -22.70,-68.22 -21.71,-69.59 -20.72,-70.91 -19.74,-72.19 -18.75,-73.44 -17.76,-74.66 -16.78,-75.86 -15.79,-77.05 -14.80,-78.24 -13.82,-79.42 -12.83,-80.62 -11.84,-81.83 -10.86,-83.06 -9.87,-84.32 -8.88,-85.61 -7.89,-86.95 -6.91,-88.34 -5.92,-89.78 -4.93,-91.29 -3.95,-92.86 -2.96,-94.52 -1.97,-96.25 -0.99,-98.08 0.00,-100.00">
        <lane id="E10_0" index="0" disallow="pedestrian" speed="13.89" length="65.22" shape="-39.08,-47.29 -39.01,-47.46 -37.99,-50.00 -36.97,-52.41 -35.94,-54.71 -34.91,-56.89 -33.89,-58.96 -32.84,-60.94 -31.80,-62.82 -30.77,-64.59 -29.74,-66.31 -28.68,-67.95 -27.65,-69.50 -26.62,-70.99 -25.58,-72.44 -24.55,-73.81 -23.53,-75.14 -22.50,-76.44 -21.48,-77.69 -20.48,-78.91 -19.48,-80.12 -18.49,-81.31 -17.52,-82.48 -16.54,-83.67 -15.57,-84.85 -14.86,-85.74"/>
        <lane id="E10_1" index="1" disallow="pedestrian" speed="13.89" length="65.22" shape="-36.05,-46.25 -35.03,-48.78 -34.04,-51.14 -33.03,-53.37 -32.03,-55.50 -31.04,-57.51 -30.03,-59.42 -29.02,-61.24 -28.02,-62.96 -27.02,-64.62 -26.01,-66.20 -25.00,-67.70 -24.01,-69.14 -23.00,-70.54 -22.00,-71.88 -21.00,-73.17 -20.00,-74.44 -19.00,-75.67 -18.01,-76.88 -17.02,-78.07 -16.03,-79.26 -15.05,-80.44 -14.07,-81.64 -13.08,-82.84 -12.11,-84.05 -11.97,-84.24"/>
    </edge>
    <edge id="E11" from="J10" to="J11" priority="-1">
        <lane id="E11_0" index="0" disallow="pedestrian" speed="13.89" length="75.00" shape="-42.30,33.28 -42.30,-33.28"/>
        <lane id="E11_1" index="1" disallow="pedestrian" speed="13.89" length="75.00" shape="-39.10,33.28 -39.10,-33.28"/>
    </edge>
    <edge id="E12" from="J11" to="J8" priority="-1">
        <lane id="E12_0" index="0" disallow="pedestrian" speed="13.89" length="75.00" shape="-33.28,-42.30 33.28,-42.30"/>
        <lane id="E12_1" index="1" disallow="pedestrian" speed="13.89" length="75.00" shape="-33.28,-39.10 33.28,-39.10"/>
    </edge>
    <edge id="E13" from="J8" to="J9" priority="-1">
        <lane id="E13_0" index="0" disallow="pedestrian" speed="13.89" length="75.00" shape="42.30,-33.28 42.30,33.28"/>
        <lane id="E13_1" index="1" disallow="pedestrian" speed="13.89" length="75.00" shape="39.10,-33.28 39.10,33.28"/>
    </edge>
    <edge id="E14" from="J9" to="J10" priority="-1">
        <lane id="E14_0" index="0" disallow="pedestrian" speed="13.89" length="75.00" shape="33.28,42.30 -33.28,42.30"/>
        <lane id="E14_1" index="1" disallow="pedestrian" speed="13.89" length="75.00" shape="33.28,39.10 -33.28,39.10"/>
    </edge>
    <edge id="E2" from="J6" to="J8" priority="-1" shape="0.00,-100.00 0.99,-98.08 1.97,-96.25 2.96,-94.52 3.95,-92.86 4.93,-91.29 5.92,-89.78 6.91,-88.34 7.89,-86.95 8.88,-85.61 9.87,-84.32 10.86,-83.06 11.84,-81.83 12.83,-80.62 13.82,-79.42 14.80,-78.24 15.79,-77.05 16.78,-75.86 17.76,-74.66 18.75,-73.44 19.74,-72.19 20.72,-70.91 21.71,-69.59 22.70,-68.22 23.68,-66.80 24.67,-65.32 25.66,-63.78 26.64,-62.15 27.63,-60.45 28.62,-58.66 29.61,-56.78 30.59,-54.80 31.58,-52.70 32.57,-50.50 33.55,-48.17 34.54,-45.71 35.53,-43.12 36.51,-40.38 37.50,-37.50">
        <lane id="E2_0" index="0" disallow="pedestrian" speed="13.89" length="65.18" shape="14.86,-85.74 15.57,-84.85 16.54,-83.67 17.52,-82.48 18.49,-81.31 19.48,-80.12 20.48,-78.91 21.48,-77.69 22.50,-76.44 23.53,-75.14 24.55,-73.81 25.58,-72.44 26.62,-70.99 27.65,-69.50 28.68,-67.95 29.74,-66.31 30.77,-64.59 31.80,-62.82 32.84,-60.94 33.89,-58.96 34.91,-56.89 35.94,-54.71 36.97,-52.41 37.99,-50.00 39.01,-47.46 39.08,-47.29"/>
        <lane id="E2_1" index="1" disallow="pedestrian" speed="13.89" length="65.18" shape="11.97,-84.24 12.11,-84.05 13.08,-82.84 14.07,-81.64 15.05,-80.44 16.03,-79.26 17.02,-78.07 18.01,-76.88 19.00,-75.67 20.00,-74.44 21.00,-73.17 22.00,-71.88 23.00,-70.54 24.01,-69.14 25.00,-67.70 26.01,-66.20 27.02,-64.62 28.02,-62.96 29.02,-61.24 30.03,-59.42 31.04,-57.51 32.03,-55.50 33.03,-53.37 34.04,-51.14 35.03,-48.78 36.05,-46.25"/>
    </edge>
    <edge id="E3" from="J8" to="J3" priority="-1" shape="37.50,-37.50 40.38,-36.51 43.12,-35.53 45.71,-34.54 48.17,-33.55 50.50,-32.57 52.70,-31.58 54.80,-30.59 56.78,-29.61 58.66,-28.62 60.45,-27.63 62.15,-26.64 63.78,-25.66 65.32,-24.67 66.80,-23.68 68.22,-22.70 69.59,-21.71 70.91,-20.72 72.19,-19.74 73.44,-18.75 74.66,-17.76 75.86,-16.78 77.05,-15.79 78.24,-14.80 79.42,-13.82 80.62,-12.83 81.83,-11.84 83.06,-10.86 84.32,-9.87 85.61,-8.88 86.95,-7.89 88.34,-6.91 89.78,-5.92 91.29,-4.93 92.86,-3.95 94.52,-2.96 96.25,-1.97 98.08,-0.99 100.00,0.00">
        <lane id="E3_0" index="0" disallow="pedestrian" speed="13.89" length="65.22" shape="47.29,-39.08 47.46,-39.01 50.00,-37.99 52.41,-36.97 54.71,-35.94 56.89,-34.91 58.96,-33.89 60.94,-32.84 62.82,-31.80 64.59,-30.77 66.31,-29.74 67.95,-28.68 69.50,-27.65 70.99,-26.62 72.44,-25.58 73.81,-24.55 75.14,-23.53 76.44,-22.50 77.69,-21.48 78.91,-20.48 80.12,-19.48 81.31,-18.49 82.48,-17.52 83.67,-16.54 84.85,-15.57 85.74,-14.86"/>
        <lane id="E3_1" index="1" disallow="pedestrian" speed="13.89" length="65.22" shape="46.25,-36.05 48.78,-35.03 51.14,-34.04 53.37,-33.03 55.50,-32.03 57.51,-31.04 59.42,-30.03 61.24,-29.02 62.96,-28.02 64.62,-27.02 66.20,-26.01 67.70,-25.00 69.14,-24.01 70.54,-23.00 71.88,-22.00 73.17,-21.00 74.44,-20.00 75.67,-19.00 76.88,-18.01 78.07,-17.02 79.26,-16.03 80.44,-15.05 81.64,-14.07 82.84,-13.08 84.05,-12.11 84.24,-11.97"/>
    </edge>
    <edge id="E4" from="J3" to="J9" priority="-1" shape="100.00,0.00 98.08,0.99 96.25,1.97 94.52,2.96 92.86,3.95 91.29,4.93 89.78,5.92 88.34,6.91 86.95,7.89 85.61,8.88 84.32,9.87 83.06,10.86 81.83,11.84 80.62,12.83 79.42,13.82 78.24,14.80 77.05,15.79 75.86,16.78 74.66,17.76 73.44,18.75 72.19,19.74 70.91,20.72 69.59,21.71 68.22,22.70 66.80,23.68 65.32,24.67 63.78,25.66 62.15,26.64 60.45,27.63 58.66,28.62 56.78,29.61 54.80,30.59 52.70,31.58 50.50,32.57 48.17,33.55 45.71,34.54 43.12,35.53 40.38,36.51 37.50,37.50">
        <lane id="E4_0" index="0" disallow="pedestrian" speed="13.89" length="65.18" shape="85.74,14.86 84.85,15.57 83.67,16.54 82.48,17.52 81.31,18.49 80.12,19.48 78.91,20.48 77.69,21.48 76.44,22.50 75.14,23.53 73.81,24.55 72.44,25.58 70.99,26.62 69.50,27.65 67.95,28.68 66.31,29.74 64.59,30.77 62.82,31.80 60.94,32.84 58.96,33.89 56.89,34.91 54.71,35.94 52.41,36.97 50.00,37.99 47.46,39.01 47.29,39.08"/>
        <lane id="E4_1" index="1" disallow="pedestrian" speed="13.89" length="65.18" shape="84.24,11.97 84.05,12.11 82.84,13.08 81.64,14.07 80.44,15.05 79.26,16.03 78.07,17.02 76.88,18.01 75.67,19.00 74.44,20.00 73.17,21.00 71.88,22.00 70.54,23.00 69.14,24.01 67.70,25.00 66.20,26.01 64.62,27.02 62.96,28.02 61.24,29.02 59.42,30.03 57.51,31.04 55.50,32.03 53.37,33.03 51.14,34.04 48.78,35.03 46.25,36.05"/>
    </edge>
    <edge id="E5" from="J9" to="J4" priority="-1" shape="37.50,37.50 36.51,40.38 35.53,43.12 34.54,45.71 33.55,48.17 32.57,50.50 31.58,52.70 30.59,54.80 29.61,56.78 28.62,58.66 27.63,60.45 26.64,62.15 25.66,63.78 24.67,65.32 23.68,66.80 22.70,68.22 21.71,69.59 20.72,70.91 19.74,72.19 18.75,73.44 17.76,74.66 16.78,75.86 15.79,77.05 14.80,78.24 13.82,79.42 12.83,80.62 11.84,81.83 10.86,83.06 9.87,84.32 8.88,85.61 7.89,86.95 6.91,88.34 5.92,89.78 4.93,91.29 3.95,92.86 2.96,94.52 1.97,96.25 0.99,98.08 0.00,100.00">
        <lane id="E5_0" index="0" disallow="pedestrian" speed="13.89" length="65.22" shape="39.08,47.29 39.01,47.46 37.99,50.00 36.97,52.41 35.94,54.71 34.91,56.89 33.89,58.96 32.84,60.94 31.80,62.82 30.77,64.59 29.74,66.31 28.68,67.95 27.65,69.50 26.62,70.99 25.58,72.44 24.55,73.81 23.53,75.14 22.50,76.44 21.48,77.69 20.48,78.91 19.48,80.12 18.49,81.31 17.52,82.48 16.54,83.67 15.57,84.85 14.86,85.74"/>
        <lane id="E5_1" index="1" disallow="pedestrian" speed="13.89" length="65.22" shape="36.05,46.25 35.03,48.78 34.04,51.14 33.03,53.37 32.03,55.50 31.04,57.51 30.03,59.42 29.02,61.24 28.02,62.96 27.02,64.62 26.01,66.20 25.00,67.70 24.01,69.14 23.00,70.54 22.00,71.88 21.00,73.17 20.00,74.44 19.00,75.67 18.01,76.88 17.02,78.07 16.03,79.26 15.05,80.44 14.07,81.64 13.08,82.84 12.11,84.05 11.97,84.24"/>
    </edge>
    <edge id="E6" from="J4" to="J10" priority="-1" shape="0.00,100.00 -0.99,98.08 -1.97,96.25 -2.96,94.52 -3.95,92.86 -4.93,91.29 -5.92,89.78 -6.91,88.34 -7.89,86.95 -8.88,85.61 -9.87,84.32 -10.86,83.06 -11.84,81.83 -12.83,80.62 -13.82,79.42 -14.80,78.24 -15.79,77.05 -16.78,75.86 -17.76,74.66 -18.75,73.44 -19.74,72.19 -20.72,70.91 -21.71,69.59 -22.70,68.22 -23.68,66.80 -24.67,65.32 -25.66,63.78 -26.64,62.15 -27.63,60.45 -28.62,58.66 -29.61,56.78 -30.59,54.80 -31.58,52.70 -32.57,50.50 -33.55,48.17 -34.54,45.71 -35.53,43.12 -36.51,40.38 -37.50,37.50">
        <lane id="E6_0" index="0" disallow="pedestrian" speed="13.89" length="65.18" shape="-14.86,85.74 -15.57,84.85 -16.54,83.67 -17.52,82.48 -18.49,81.31 -19.48,80.12 -20.48,78.91 -21.48,77.69 -22.50,76.44 -23.53,75.14 -24.55,73.81 -25.58,72.44 -26.62,70.99 -27.65,69.50 -28.68,67.95 -29.74,66.31 -30.77,64.59 -31.80,62.82 -32.84,60.94 -33.89,58.96 -34.91,56.89 -35.94,54.71 -36.97,52.41 -37.99,50.00 -39.01,47.46 -39.08,47.29"/>
        <lane id="E6_1" index="1" disallow="pedestrian" speed="13.89" length="65.18" shape="-11.97,84.24 -12.11,84.05 -13.08,82.84 -14.07,81.64 -15.05,80.44 -16.03,79.26 -17.02,78.07 -18.01,76.88 -19.00,75.67 -20.00,74.44 -21.00,73.17 -22.00,71.88 -23.00,70.54 -24.01,69.14 -25.00,67.70 -26.01,66.20 -27.02,64.62 -28.02,62.96 -29.02,61.24 -30.03,59.42 -31.04,57.51 -32.03,55.50 -33.03,53.37 -34.04,51.14 -35.03,48.78 -36.05,46.25"/>
    </edge>
    <edge id="E7" from="J10" to="J1" priority="-1" shape="-37.50,37.50 -40.38,36.51 -43.12,35.53 -45.71,34.54 -48.17,33.55 -50.50,32.57 -52.70,31.58 -54.80,30.59 -56.78,29.61 -58.66,28.62 -60.45,27.63 -62.15,26.64 -63.78,25.66 -65.32,24.67 -66.80,23.68 -68.22,22.70 -69.59,21.71 -70.91,20.72 -72.19,19.74 -73.44,18.75 -74.66,17.76 -75.86,16.78 -77.05,15.79 -78.24,14.80 -79.42,13.82 -80.62,12.83 -81.83,11.84 -83.06,10.86 -84.32,9.87 -85.61,8.88 -86.95,7.89 -88.34,6.91 -89.78,5.92 -91.29,4.93 -92.86,3.95 -94.52,2.96 -96.25,1.97 -98.08,0.99 -100.00,0.00">
        <lane id="E7_0" index="0" disallow="pedestrian" speed="13.89" length="65.22" shape="-47.29,39.08 -47.46,39.01 -50.00,37.99 -52.41,36.97 -54.71,35.94 -56.89,34.91 -58.96,33.89 -60.94,32.84 -62.82,31.80 -64.59,30.77 -66.31,29.74 -67.95,28.68 -69.50,27.65 -70.99,26.62 -72.44,25.58 -73.81,24.55 -75.14,23.53 -76.44,22.50 -77.69,21.48 -78.91,20.48 -80.12,19.48 -81.31,18.49 -82.48,17.52 -83.67,16.54 -84.85,15.57 -85.74,14.86"/>
        <lane id="E7_1" index="1" disallow="pedestrian" speed="13.89" length="65.22" shape="-46.25,36.05 -48.78,35.03 -51.14,34.04 -53.37,33.03 -55.50,32.03 -57.51,31.04 -59.42,30.03 -61.24,29.02 -62.96,28.02 -64.62,27.02 -66.20,26.01 -67.70,25.00 -69.14,24.01 -70.54,23.00 -71.88,22.00 -73.17,21.00 -74.44,20.00 -75.67,19.00 -76.88,18.01 -78.07,17.02 -79.26,16.03 -80.44,15.05 -81.64,14.07 -82.84,13.08 -84.05,12.11 -84.24,11.97"/>
    </edge>
    <edge id="E9" from="J1" to="J11" priority="-1" shape="-100.00,0.00 -98.08,-0.99 -96.25,-1.97 -94.52,-2.96 -92.86,-3.95 -91.29,-4.93 -89.78,-5.92 -88.34,-6.91 -86.95,-7.89 -85.61,-8.88 -84.32,-9.87 -83.06,-10.86 -81.83,-11.84 -80.62,-12.83 -79.42,-13.82 -78.24,-14.80 -77.05,-15.79 -75.86,-16.78 -74.66,-17.76 -73.44,-18.75 -72.19,-19.74 -70.91,-20.72 -69.59,-21.71 -68.22,-22.70 -66.80,-23.68 -65.32,-24.67 -63.78,-25.66 -62.15,-26.64 -60.45,-27.63 -58.66,-28.62 -56.78,-29.61 -54.80,-30.59 -52.70,-31.58 -50.50,-32.57 -48.17,-33.55 -45.71,-34.54 -43.12,-35.53 -40.38,-36.51 -37.50,-37.50">
        <lane id="E9_0" index="0" disallow="pedestrian" speed="13.89" length="65.18" shape="-85.74,-14.86 -84.85,-15.57 -83.67,-16.54 -82.48,-17.52 -81.31,-18.49 -80.12,-19.48 -78.91,-20.48 -77.69,-21.48 -76.44,-22.50 -75.14,-23.53 -73.81,-24.55 -72.44,-25.58 -70.99,-26.62 -69.50,-27.65 -67.95,-28.68 -66.31,-29.74 -64.59,-30.77 -62.82,-31.80 -60.94,-32.84 -58.96,-33.89 -56.89,-34.91 -54.71,-35.94 -52.41,-36.97 -50.00,-37.99 -47.46,-39.01 -47.29,-39.08"/>
        <lane id="E9_1" index="1" disallow="pedestrian" speed="13.89" length="65.18" shape="-84.24,-11.97 -84.05,-12.11 -82.84,-13.08 -81.64,-14.07 -80.44,-15.05 -79.26,-16.03 -78.07,-17.02 -76.88,-18.01 -75.67,-19.00 -74.44,-20.00 -73.17,-21.00 -71.88,-22.00 -70.54,-23.00 -69.14,-24.01 -67.70,-25.00 -66.20,-26.01 -64.62,-27.02 -62.96,-28.02 -61.24,-29.02 -59.42,-30.03 -57.51,-31.04 -55.50,-32.03 -53.37,-33.03 -51.14,-34.04 -48.78,-35.03 -46.25,-36.05"/>
    </edge>

    <tlLogic id="J1" type="static" programID="0" offset="0">
        <phase duration="42" state="ggGGGGGG"/>
    </tlLogic>
    <tlLogic id="J10" type="static" programID="0" offset="0">
        <phase duration="22" state="GGrr"/>
        <phase duration="3"  state="yyrr"/>
        <phase duration="22" state="rrGG"/>
        <phase duration="3"  state="rryy"/>
    </tlLogic>
    <tlLogic id="J11" type="static" programID="0" offset="0">
        <phase duration="22" state="GGrr"/>
        <phase duration="3"  state="yyrr"/>
        <phase duration="22" state="rrGG"/>
        <phase duration="3"  state="rryy"/>
    </tlLogic>
    <tlLogic id="J3" type="static" programID="0" offset="0">
        <phase duration="42" state="GGGGggGG"/>
    </tlLogic>
    <tlLogic id="J4" type="static" programID="0" offset="0">
        <phase duration="42" state="GGGGggGG"/>
    </tlLogic>
    <tlLogic id="J6" type="static" programID="0" offset="0">
        <phase duration="42" state="GGGGGGgg"/>
    </tlLogic>
    <tlLogic id="J8" type="static" programID="0" offset="0">
        <phase duration="22" state="GGrr"/>
        <phase duration="3"  state="yyrr"/>
        <phase duration="22" state="rrGG"/>
        <phase duration="3"  state="rryy"/>
    </tlLogic>
    <tlLogic id="J9" type="static" programID="0" offset="0">
        <phase duration="22" state="GGrr"/>
        <phase duration="3"  state="yyrr"/>
        <phase duration="22" state="rrGG"/>
        <phase duration="3"  state="rryy"/>
    </tlLogic>

    <junction id="J0" type="dead_end" x="-200.00" y="0.00" incLanes="-W_0 -W_1 -W_2" intLanes="" shape="-200.00,0.00 -200.00,9.60 -200.00,0.00"/>
    <junction id="J1" type="traffic_light" x="-100.00" y="0.00" incLanes="E7_0 E7_1 E1_0 E1_1 E1_2 +W_0 +W_1 +W_2" intLanes="" shape="-86.49,16.31 -83.49,10.52 -83.98,10.01 -84.00,9.83 -83.87,9.70 -83.60,9.63 -83.17,9.60 -83.17,-9.60 -83.87,-9.70 -84.00,-9.83 -83.98,-10.01 -83.81,-10.24 -83.49,-10.52 -86.49,-16.31 -88.59,-14.43 -90.12,-12.80 -91.42,-11.46 -92.83,-10.45 -94.71,-9.82 -97.39,-9.60 -97.39,9.60 -94.71,9.82 -92.83,10.45 -91.42,11.46 -90.12,12.80 -88.59,14.43">
        <request index="0" response="00001110" foes="00001110"/>
        <request index="1" response="00001100" foes="00001101"/>
        <request index="2" response="00000000" foes="00000011"/>
        <request index="3" response="00000000" foes="00000011"/>
        <request index="4" response="00000000" foes="00000000"/>
        <request index="5" response="00000000" foes="00000000"/>
        <request index="6" response="00000000" foes="00000000"/>
        <request index="7" response="00000000" foes="00000000"/>
    </junction>
    <junction id="J10" type="traffic_light" x="-37.50" y="37.50" incLanes="E6_0 E6_1 E14_0 E14_1" intLanes="" shape="-40.59,47.81 -34.53,45.72 -34.72,44.70 -34.59,44.35 -34.30,44.10 -33.87,43.95 -33.28,43.90 -33.28,37.50 -35.62,37.03 -36.44,36.44 -37.03,35.62 -37.38,34.57 -37.50,33.28 -43.90,33.28 -44.10,34.30 -44.35,34.59 -44.70,34.72 -45.16,34.71 -45.72,34.53 -47.81,40.59 -44.68,42.28 -43.39,43.39 -42.28,44.68 -41.34,46.16">
        <request index="0" response="0000" foes="0100"/>
        <request index="1" response="0000" foes="1100"/>
        <request index="2" response="0011" foes="0011"/>
        <request index="3" response="0010" foes="0010"/>
    </junction>
    <junction id="J11" type="traffic_light" x="-37.50" y="-37.50" incLanes="E11_0 E11_1 E9_0 E9_1" intLanes="" shape="-43.90,-33.28 -37.50,-33.28 -37.03,-35.62 -36.44,-36.44 -35.62,-37.03 -34.57,-37.38 -33.28,-37.50 -33.28,-43.90 -34.30,-44.10 -34.59,-44.35 -34.72,-44.70 -34.71,-45.16 -34.53,-45.72 -40.59,-47.81 -42.28,-44.68 -43.39,-43.39 -44.68,-42.28 -46.16,-41.34 -47.81,-40.59 -45.72,-34.53 -44.70,-34.72 -44.35,-34.59 -44.10,-34.30 -43.95,-33.87">
        <request index="0" response="1100" foes="1100"/>
        <request index="1" response="1000" foes="1000"/>
        <request index="2" response="0000" foes="0001"/>
        <request index="3" response="0000" foes="0011"/>
    </junction>
    <junction id="J2" type="dead_end" x="200.00" y="0.00" incLanes="-E_0 -E_1 -E_2" intLanes="" shape="200.00,0.00 200.00,-9.60 200.00,0.00"/>
    <junction id="J3" type="traffic_light" x="100.00" y="0.00" incLanes="+E_0 +E_1 +E_2 E3_0 E3_1 -E1_0 -E1_1 -E1_2" intLanes="" shape="97.39,9.60 97.39,-9.60 94.71,-9.82 92.83,-10.45 91.42,-11.46 90.12,-12.80 88.59,-14.43 86.49,-16.31 83.49,-10.52 83.98,-10.01 84.00,-9.83 83.87,-9.70 83.60,-9.63 83.17,-9.60 83.17,9.60 83.87,9.70 84.00,9.83 83.98,10.01 83.81,10.24 83.49,10.52 86.49,16.31 88.59,14.43 90.12,12.80 91.42,11.46 92.83,10.45 94.71,9.82">
        <request index="0" response="00000000" foes="00000000"/>
        <request index="1" response="00000000" foes="00000000"/>
        <request index="2" response="00000000" foes="00000000"/>
        <request index="3" response="00000000" foes="00000000"/>
        <request index="4" response="11100000" foes="11100000"/>
        <request index="5" response="11000000" foes="11010000"/>
        <request index="6" response="00000000" foes="00110000"/>
        <request index="7" response="00000000" foes="00110000"/>
    </junction>
    <junction id="J4" type="traffic_light" x="0.00" y="100.00" incLanes="+N_0 +N_1 +N_2 E5_0 E5_1 E0_0 E0_1 E0_2" intLanes="" shape="-9.60,97.39 9.60,97.39 9.82,94.71 10.45,92.83 11.46,91.42 12.80,90.12 14.43,88.59 16.31,86.49 10.52,83.49 10.01,83.98 9.83,84.00 9.70,83.87 9.63,83.60 9.60,83.17 -9.60,83.17 -9.70,83.87 -9.83,84.00 -10.01,83.98 -10.24,83.81 -10.52,83.49 -16.31,86.49 -14.43,88.59 -12.80,90.12 -11.46,91.42 -10.45,92.83 -9.82,94.71">
        <request index="0" response="00000000" foes="00000000"/>
        <request index="1" response="00000000" foes="00000000"/>
        <request index="2" response="00000000" foes="00000000"/>
        <request index="3" response="00000000" foes="00000000"/>
        <request index="4" response="11100000" foes="11100000"/>
        <request index="5" response="11000000" foes="11010000"/>
        <request index="6" response="00000000" foes="00110000"/>
        <request index="7" response="00000000" foes="00110000"/>
    </junction>
    <junction id="J5" type="dead_end" x="0.00" y="200.00" incLanes="-N_0 -N_1 -N_2" intLanes="" shape="0.00,200.00 9.60,200.00 0.00,200.00"/>
    <junction id="J6" type="traffic_light" x="0.00" y="-100.00" incLanes="-E0_0 -E0_1 -E0_2 +S_0 +S_1 +S_2 E10_0 E10_1" intLanes="" shape="-9.60,-83.17 9.60,-83.17 9.70,-83.87 9.83,-84.00 10.01,-83.98 10.24,-83.81 10.52,-83.49 16.31,-86.49 14.43,-88.59 12.80,-90.12 11.46,-91.42 10.45,-92.83 9.82,-94.71 9.60,-97.39 -9.60,-97.39 -9.82,-94.71 -10.45,-92.83 -11.46,-91.42 -12.80,-90.12 -14.43,-88.59 -16.31,-86.49 -10.52,-83.49 -10.01,-83.98 -9.83,-84.00 -9.70,-83.87 -9.63,-83.60">
        <request index="0" response="00000000" foes="11000000"/>
        <request index="1" response="00000000" foes="11000000"/>
        <request index="2" response="00000000" foes="00000000"/>
        <request index="3" response="00000000" foes="00000000"/>
        <request index="4" response="00000000" foes="00000000"/>
        <request index="5" response="00000000" foes="00000000"/>
        <request index="6" response="10000011" foes="10000011"/>
        <request index="7" response="00000011" foes="01000011"/>
    </junction>
    <junction id="J7" type="dead_end" x="0.00" y="-200.00" incLanes="-S_0 -S_1 -S_2" intLanes="" shape="0.00,-200.00 -9.60,-200.00 0.00,-200.00"/>
    <junction id="J8" type="traffic_light" x="37.50" y="-37.50" incLanes="E2_0 E2_1 E12_0 E12_1" intLanes="" shape="37.50,-33.28 43.90,-33.28 44.10,-34.30 44.35,-34.59 44.70,-34.72 45.16,-34.71 45.72,-34.53 47.81,-40.59 44.68,-42.28 43.39,-43.39 42.28,-44.68 41.34,-46.16 40.59,-47.81 34.53,-45.72 34.72,-44.70 34.59,-44.35 34.30,-44.10 33.87,-43.95 33.28,-43.90 33.28,-37.50 35.62,-37.03 36.44,-36.44 37.03,-35.62 37.38,-34.57">
        <request index="0" response="0000" foes="0100"/>
        <request index="1" response="0000" foes="1100"/>
        <request index="2" response="0011" foes="0011"/>
        <request index="3" response="0010" foes="0010"/>
    </junction>
    <junction id="J9" type="traffic_light" x="37.50" y="37.50" incLanes="E4_0 E4_1 E13_0 E13_1" intLanes="" shape="47.81,40.59 45.72,34.53 44.70,34.72 44.35,34.59 44.10,34.30 43.95,33.87 43.90,33.28 37.50,33.28 37.03,35.62 36.44,36.44 35.62,37.03 34.57,37.38 33.28,37.50 33.28,43.90 34.30,44.10 34.59,44.35 34.72,44.70 34.71,45.16 34.53,45.72 40.59,47.81 42.28,44.68 43.39,43.39 44.68,42.28 46.16,41.34">
        <request index="0" response="0000" foes="0100"/>
        <request index="1" response="0000" foes="1100"/>
        <request index="2" response="0011" foes="0011"/>
        <request index="3" response="0010" foes="0010"/>
    </junction>

    <connection from="+E" to="E4" fromLane="1" toLane="0" tl="J3" linkIndex="0" dir="R" state="O"/>
    <connection from="+E" to="E4" fromLane="1" toLane="1" tl="J3" linkIndex="1" dir="R" state="O"/>
    <connection from="+E" to="E1" fromLane="1" toLane="1" tl="J3" linkIndex="2" dir="s" state="O"/>
    <connection from="+E" to="E1" fromLane="2" toLane="2" tl="J3" linkIndex="3" dir="s" state="O"/>
    <connection from="+N" to="E6" fromLane="1" toLane="0" tl="J4" linkIndex="0" dir="R" state="O"/>
    <connection from="+N" to="E6" fromLane="1" toLane="1" tl="J4" linkIndex="1" dir="R" state="O"/>
    <connection from="+N" to="-E0" fromLane="1" toLane="1" tl="J4" linkIndex="2" dir="s" state="O"/>
    <connection from="+N" to="-E0" fromLane="2" toLane="2" tl="J4" linkIndex="3" dir="s" state="O"/>
    <connection from="+S" to="E2" fromLane="1" toLane="0" tl="J6" linkIndex="2" dir="R" state="O"/>
    <connection from="+S" to="E2" fromLane="1" toLane="1" tl="J6" linkIndex="3" dir="R" state="O"/>
    <connection from="+S" to="E0" fromLane="1" toLane="1" tl="J6" linkIndex="4" dir="s" state="O"/>
    <connection from="+S" to="E0" fromLane="2" toLane="2" tl="J6" linkIndex="5" dir="s" state="O"/>
    <connection from="+W" to="E9" fromLane="1" toLane="0" tl="J1" linkIndex="4" dir="R" state="O"/>
    <connection from="+W" to="E9" fromLane="1" toLane="1" tl="J1" linkIndex="5" dir="R" state="O"/>
    <connection from="+W" to="-E1" fromLane="1" toLane="1" tl="J1" linkIndex="6" dir="s" state="O"/>