<?xml version="1.0" encoding="UTF-8"?>

<!-- generated on 2023-04-19 12:28:07 by Eclipse SUMO netedit Version 1.15.0
-->

<routes xmlns:xsi="http://www.w3.org/2001/XMLSchema-instance" xsi:noNamespaceSchemaLocation="http://sumo.dlr.de/xsd/routes_file.xsd">
    <!-- Vehicles, persons and containers (sorted by depart) -->
    <trip id="t_0" depart="0.00" from="E5" to="E7"/>
    <trip id="t_1" type="DEFAULT_CONTAINERTYPE" depart="0.00" from="E6" to="E7"/>
    <trip id="t_2" type="DEFAULT_CONTAINERTYPE" depart="0.00" from="E6" to="E7"/>
    <trip id="t_3" type="DEFAULT_CONTAINERTYPE" depart="0.00" from="E5" to="E7"/>
    <trip id="t_4" type="DEFAULT_CONTAINERTYPE" depart="0.00" from="E6" to="E7"/>
    <trip id="t_5" type="DEFAULT_CONTAINERTYPE" depart="0.00" from="E6" to="E7"/>
</routes>
